3
Coordinates from ORCA-job O3 E -225.120411262747
  O       0.000000      0.000000      0.000000
  O       1.352000      0.000000      0.000000
  O       1.845313      1.258787      0.000000
3
Coordinates from ORCA-job O3 E -225.137683094954
  O       0.038889     -0.007573      0.000000
  O       1.320260      0.046569      0.000000
  O       1.838165      1.219791      0.000000
3
Coordinates from ORCA-job O3 E -225.139505385170
  O       0.068882     -0.006709      0.000000
  O       1.302017      0.073321      0.000000
  O       1.826415      1.192176      0.000000
3
Coordinates from ORCA-job O3 E -225.139968067569
  O       0.056993     -0.009909      0.000000
  O       1.306580      0.066601      0.000000
  O       1.833741      1.202095      0.000000
3
Coordinates from ORCA-job O3 E -225.139976303414
  O       0.058668     -0.008809      0.000000
  O       1.306537      0.066652      0.000000
  O       1.832108      1.200944      0.000000
3
Coordinates from ORCA-job O3 E -225.139976442781
  O       0.058639     -0.009020      0.000000
  O       1.306358      0.066911      0.000000
  O       1.832317      1.200897      0.000000
