2
Coordinates from ORCA-job H E  -1.163874516178
  H       0.000000      0.000000      0.000000
  H       0.740000      0.000000      0.000000
2
Coordinates from ORCA-job H E  -1.163893630425
  H      -0.004928      0.000000      0.000000
  H       0.744928      0.000000      0.000000
2
Coordinates from ORCA-job H E  -1.163902068473
  H      -0.003196      0.000000      0.000000
  H       0.743196      0.000000      0.000000
2
Coordinates from ORCA-job H E  -1.163902071974
  H      -0.003157      0.000000      0.000000
  H       0.743157      0.000000      0.000000
