10
Coordinates from ORCA-job keto_enlo E -193.009467435188
  C       0.000000      0.000000      0.000000
  C       1.504790      0.000000      0.000000
  H      -0.365636      1.029636      0.000000
  H      -0.368566     -0.510506      0.894052
  H      -0.367288     -0.530753     -0.881910
  C       2.182027      0.569329     -1.217213
  H       1.841415      0.037722     -2.109257
  H       3.264883      0.445654     -1.128257
  H       1.949803      1.633735     -1.300717
  O       2.149666     -0.421391      0.958964
10
Coordinates from ORCA-job keto_enlo E -193.011256650832
  C      -0.007059     -0.005389      0.009298
  C       1.512277     -0.000410      0.013223
  H      -0.385994      1.037075     -0.003722
  H      -0.380497     -0.515631      0.916171
  H      -0.387309     -0.534775     -0.888113
  C       2.194805      0.569305     -1.218844
  H       1.846977      0.040333     -2.129562
  H       3.290054      0.450201     -1.126908
  H       1.953097      1.647409     -1.317852
  O       2.154746     -0.434693      0.961971
10
Coordinates from ORCA-job keto_enlo E -193.011493295145
  C      -0.008416     -0.009051      0.013435
  C       1.517150     -0.019994      0.012794
  H      -0.382291      1.038139     -0.017812
  H      -0.384812     -0.503304      0.929646
  H      -0.405718     -0.533890     -0.882367
  C       2.200175      0.567553     -1.218341
  H       1.859649      0.049351     -2.141012
  H       3.298094      0.465720     -1.120386
  H       1.939678      1.643960     -1.322555
  O       2.157587     -0.445058      0.962261
10
Coordinates from ORCA-job keto_enlo E -193.011543748634
  C      -0.007634     -0.009591      0.016383
  C       1.520337     -0.011226      0.022623
  H      -0.389725      1.034074     -0.025173
  H      -0.385207     -0.501669      0.932465
  H      -0.404240     -0.528980     -0.882612
  C       2.202425      0.567539     -1.216114
  H       1.856882      0.053172     -2.138809
  H       3.299929      0.467898     -1.118900
  H       1.938652      1.641584     -1.333554
  O       2.159675     -0.459375      0.959352
10
Coordinates from ORCA-job keto_enlo E -193.011577299867
  C      -0.006357     -0.009137      0.015620
  C       1.519718     -0.018282      0.018220
  H      -0.383146      1.035377     -0.029095
  H      -0.384291     -0.496159      0.933495
  H      -0.405839     -0.530113     -0.880041
  C       2.201048      0.567306     -1.215399
  H       1.860133      0.053325     -2.138923
  H       3.298210      0.472729     -1.116400
  H       1.932066      1.639427     -1.330136
  O       2.159552     -0.461046      0.958321
10
Coordinates from ORCA-job keto_enlo E -193.011583747894
  C      -0.005380     -0.008468      0.015823
  C       1.519570     -0.020653      0.016859
  H      -0.380378      1.036163     -0.033236
  H      -0.383852     -0.491769      0.935133
  H      -0.406100     -0.531025     -0.878024
  C       2.200504      0.567608     -1.214338
  H       1.862237      0.053048     -2.138188
  H       3.297629      0.476862     -1.114210
  H       1.927221      1.638209     -1.330045
  O       2.159645     -0.466549      0.955887
10
Coordinates from ORCA-job keto_enlo E -193.011589046437
  C      -0.004514     -0.007251      0.016624
  C       1.519421     -0.023160      0.015444
  H      -0.377884      1.037512     -0.039146
  H      -0.383693     -0.485351      0.938196
  H      -0.406752     -0.533149     -0.874598
  C       2.200271      0.568584     -1.212918
  H       1.866122      0.052134     -2.137234
  H       3.297532      0.483232     -1.111032
  H       1.920880      1.637228     -1.331050
  O       2.159712     -0.476353      0.951377
10
Coordinates from ORCA-job keto_enlo E -193.011593168645
  C      -0.004189     -0.005676      0.017730
  C       1.519296     -0.025472      0.014165
  H      -0.376401      1.039139     -0.044975
  H      -0.383848     -0.478559      0.941785
  H      -0.407782     -0.536209     -0.870392
  C       2.200386      0.570143     -1.211699
  H       1.871169      0.050690     -2.136359
  H       3.297854      0.490170     -1.107735
  H       1.914958      1.636893     -1.332763
  O       2.159652     -0.487692      0.945906
10
Coordinates from ORCA-job keto_enlo E -193.011596985017
  C      -0.004341     -0.003552      0.019058
  C       1.519210     -0.028049      0.012833
  H      -0.375593      1.041169     -0.051150
  H      -0.384144     -0.470801      0.946001
  H      -0.409194     -0.540415     -0.865044
  C       2.200679      0.572412     -1.210640
  H       1.877749      0.048613     -2.135416
  H       3.298367      0.498158     -1.104001
  H       1.908917      1.637094     -1.335111
  O       2.159444     -0.501204      0.939134
10
Coordinates from ORCA-job keto_enlo E -193.011598784081
  C      -0.004756     -0.002144      0.019690
  C       1.519237     -0.029505      0.012213
  H      -0.375657      1.042403     -0.054110
  H      -0.384266     -0.466647      0.948225
  H      -0.410002     -0.543135     -0.861869
  C       2.200821      0.573967     -1.210342
  H       1.881720      0.047188     -2.134902
  H       3.298600      0.502398     -1.101996
  H       1.906133      1.637592     -1.336511
  O       2.159265     -0.508690      0.935263
10
Coordinates from ORCA-job keto_enlo E -193.011599197029
  C      -0.004987     -0.001738      0.019669
  C       1.519315     -0.029855      0.012187
  H      -0.375858      1.042711     -0.054431
  H      -0.384180     -0.465949      0.948511
  H      -0.410071     -0.543820     -0.861246
  C       2.200752      0.574406     -1.210464
  H       1.882500      0.046772     -2.134782
  H       3.298522      0.503026     -1.101633
  H       1.905867      1.637879     -1.336735
  O       2.159236     -0.510006      0.934586
