25
Coordinates from ORCA-job CrNH3_6 E -1379.810400226725
  Cr      0.000000      0.000390     -0.000670
  N      -1.826260      0.494850     -1.141430
  N       1.240650      0.892720     -1.596030
  N      -1.239630     -0.892410      1.595730
  N       1.825200     -0.495000      1.141780
  N       0.103440     -1.959640     -1.015060
  N      -0.103960      1.959390      1.015670
  H      -0.506790      2.669440      0.364570
  H      -0.708010      1.892200      1.864570
  H       0.853340      2.267180      1.296630
  H      -0.922270     -0.536110      2.524610
  H      -1.146140     -1.932130      1.584030
  H      -2.241400     -0.634200      1.453980
  H       1.975250      0.201890      1.904450
  H       1.721440     -1.443690      1.565830
  H       2.653410     -0.495120      0.505880
  H       0.991950     -2.445820     -0.761240
  H       0.071430     -1.821570     -2.049520
  H      -0.707460     -2.552500     -0.730570
  H       0.694160      1.618490     -2.110440
  H       1.552040      0.155350     -2.266140
  H       2.080900      1.344230     -1.171100
  H      -2.336780      1.277540     -0.675620
  H      -1.579270      0.774890     -2.116290
  H      -2.448550     -0.343020     -1.177740
25
Coordinates from ORCA-job CrNH3_6 E -1379.840476475363
  Cr      0.000082      0.000548     -0.000729
  N      -1.825791      0.485020     -1.138467
  N       1.242376      0.897702     -1.586720
  N      -1.232747     -0.887792      1.597747
  N       1.818466     -0.502028      1.141471
  N       0.100442     -1.953056     -1.019211
  N      -0.103235      1.960251      1.005759
  H      -0.490940      2.663164      0.389310
  H      -0.684603      1.922564      1.833135
  H       0.814542      2.280407      1.286350
  H      -0.939647     -0.554627      2.507544
  H      -1.157965     -1.896640      1.607503
  H      -2.210022     -0.650714      1.482737
  H       1.985716      0.158917      1.888768
  H       1.736241     -1.419737      1.560982
  H       2.636470     -0.509688      0.545429
  H       0.954738     -2.444828     -0.789582
  H       0.069796     -1.840535     -2.024570
  H      -0.677131     -2.545920     -0.759523
  H       0.733626      1.606533     -2.098849
  H       1.558768      0.202721     -2.250524
  H       2.062578      1.341712     -1.193424
  H      -2.340078      1.241640     -0.705681
  H      -1.612865      0.758522     -2.088803
  H      -2.442128     -0.316783     -1.184774
25
Coordinates from ORCA-job CrNH3_6 E -1379.846652716473
  Cr      0.000161      0.000619     -0.000679
  N      -1.823183      0.466865     -1.132249
  N       1.243900      0.905437     -1.568595
  N      -1.219710     -0.878031      1.600463
  N       1.804777     -0.514470      1.139983
  N       0.095694     -1.939290     -1.026318
  N      -0.101928      1.959661      0.987289
  H      -0.482709      2.670698      0.389597
  H      -0.674171      1.955166      1.811816
  H       0.797356      2.300946      1.273795
  H      -0.942230     -0.560284      2.511470
  H      -1.163584     -1.879500      1.633682
  H      -2.194897     -0.656461      1.513690
  H       1.994940      0.124113      1.890418
  H       1.740242     -1.422104      1.564334
  H       2.632581     -0.532492      0.572482
  H       0.935335     -2.449254     -0.820227
  H       0.063695     -1.848094     -2.025548
  H      -0.665492     -2.547629     -0.785961
  H       0.762175      1.614557     -2.090509
  H       1.575830      0.239930     -2.242540
  H       2.061807      1.352753     -1.196004
  H      -2.356153      1.213371     -0.724561
  H      -1.641619      0.739308     -2.080905
  H      -2.446128     -0.318465     -1.189044
25
Coordinates from ORCA-job CrNH3_6 E -1379.849054337335
  Cr      0.000189      0.000561     -0.000542
  N      -1.817868      0.448558     -1.124696
  N       1.243439      0.911582     -1.548578
  N      -1.205503     -0.867178      1.600936
  N       1.788837     -0.525810      1.136973
  N       0.091136     -1.923132     -1.031935
  N      -0.100473      1.956147      0.967905
  H      -0.477676      2.679007      0.378919
  H      -0.670737      1.980820      1.795860
  H       0.790946      2.317050      1.261951
  H      -0.936290     -0.559891      2.520121
  H      -1.165485     -1.870676      1.653117
  H      -2.186671     -0.654972      1.538853
  H       1.999664      0.099351      1.895949
  H       1.736635     -1.432801      1.568843
  H       2.631626     -0.554056      0.588774
  H       0.926705     -2.451464     -0.847049
  H       0.054735     -1.847196     -2.034251
  H      -0.661363     -2.550073     -0.803854
  H       0.779605      1.626204     -2.082947
  H       1.592869      0.265988     -2.235880
  H       2.065126      1.366211     -1.188161
  H      -2.371600      1.192119     -0.734798
  H      -1.660713      0.721816     -2.079668
  H      -2.450443     -0.330815     -1.189963
25
Coordinates from ORCA-job CrNH3_6 E -1379.849483812345
  Cr      0.000135      0.000379     -0.000363
  N      -1.812508      0.440197     -1.119735
  N       1.241297      0.912419     -1.537362
  N      -1.197993     -0.860946      1.598549
  N       1.779129     -0.529819      1.133892
  N       0.089521     -1.913133     -1.032833
  N      -0.099916      1.951292      0.958220
  H      -0.472996      2.680113      0.368810
  H      -0.673943      1.988921      1.786814
  H       0.790194      2.318352      1.259009
  H      -0.927151     -0.560058      2.522654
  H      -1.167908     -1.867642      1.654945
  H      -2.182681     -0.647302      1.549180
  H       1.998888      0.092478      1.896790
  H       1.729735     -1.438071      1.570366
  H       2.629239     -0.564143      0.591799
  H       0.929027     -2.446027     -0.862922
  H       0.043084     -1.841732     -2.038099
  H      -0.656886     -2.551506     -0.802941
  H       0.781739      1.627995     -2.079858
  H       1.601979      0.272945     -2.229065
  H       2.063750      1.373905     -1.179045
  H      -2.375939      1.183751     -0.735900
  H      -1.663806      0.714315     -2.079071
  H      -2.449301     -0.339333     -1.187957
25
Coordinates from ORCA-job CrNH3_6 E -1379.849537452442
  Cr      0.000068      0.000227     -0.000231
  N      -1.809835      0.439070     -1.117972
  N       1.239892      0.910993     -1.534354
  N      -1.196491     -0.858981      1.596487
  N       1.776124     -0.529749      1.132305
  N       0.089902     -1.909880     -1.032014
  N      -0.100110      1.948397      0.956396
  H      -0.466834      2.678538      0.363532
  H      -0.680208      1.988960      1.781444
  H       0.789628      2.312764      1.263621
  H      -0.919868     -0.563380      2.521312
  H      -1.172865     -1.866711      1.648697
  H      -2.180650     -0.638655      1.552349
  H       1.997317      0.093687      1.894713
  H       1.725183     -1.437920      1.570304
  H       2.626854     -0.566580      0.590094
  H       0.935450     -2.437877     -0.873090
  H       0.030644     -1.838059     -2.037240
  H      -0.649729     -2.553831     -0.793176
  H       0.778286      1.622518     -2.081598
  H       1.607035      0.270845     -2.223015
  H       2.059078      1.378317     -1.174306
  H      -2.374587      1.182620     -0.734302
  H      -1.661125      0.713484     -2.077898
  H      -2.446469     -0.341446     -1.186179
25
Coordinates from ORCA-job CrNH3_6 E -1379.849575992159
  Cr     -0.000049     -0.000002     -0.000013
  N      -1.807158      0.438518     -1.115915
  N       1.238551      0.908576     -1.531628
  N      -1.195671     -0.856529      1.594327
  N       1.773300     -0.529605      1.130441
  N       0.091106     -1.906502     -1.031318
  N      -0.100744      1.945117      0.955162
  H      -0.454470      2.676812      0.356059
  H      -0.692345      1.989474      1.772043
  H       0.787469      2.303009      1.274610
  H      -0.909063     -0.569765      2.519098
  H      -1.182608     -1.864942      1.638838
  H      -2.177628     -0.624466      1.557813
  H       1.995318      0.095017      1.891818
  H       1.719724     -1.437431      1.569268
  H       2.623744     -0.568876      0.587627
  H       0.946414     -2.424239     -0.890751
  H       0.009612     -1.833488     -2.035092
  H      -0.635934     -2.558959     -0.776884
  H       0.772932      1.611302     -2.087032
  H       1.616481      0.266420     -2.212838
  H       2.050532      1.386368     -1.168537
  H      -2.372430      1.181728     -0.731879
  H      -1.657757      0.713048     -2.075844
  H      -2.442636     -0.343237     -1.183492
25
Coordinates from ORCA-job CrNH3_6 E -1379.849595478179
  Cr     -0.000140     -0.000165      0.000158
  N      -1.806573      0.438341     -1.114560
  N       1.238509      0.906896     -1.530565
  N      -1.195833     -0.854632      1.593985
  N       1.772299     -0.530254      1.129490
  N       0.092418     -1.904843     -1.031870
  N      -0.101530      1.943848      0.954784
  H      -0.441437      2.677180      0.349973
  H      -0.704761      1.991951      1.762702
  H       0.784343      2.295312      1.287022
  H      -0.900954     -0.575337      2.518277
  H      -1.192028     -1.863171      1.632593
  H      -2.175451     -0.612696      1.563821
  H       1.994271      0.093817      1.891080
  H       1.717268     -1.438347      1.567241
  H       2.622463     -0.569731      0.586563
  H       0.955696     -2.413111     -0.907568
  H      -0.008528     -1.831006     -2.033663
  H      -0.622766     -2.564863     -0.764442
  H       0.769611      1.600545     -2.094218
  H       1.626837      0.262847     -2.203864
  H       2.043074      1.395042     -1.165185
  H      -2.371792      1.181263     -0.730316
  H      -1.657233      0.712565     -2.074386
  H      -2.441073     -0.344103     -1.181172
25
Coordinates from ORCA-job CrNH3_6 E -1379.849619258599
  Cr     -0.000263     -0.000384      0.000401
  N      -1.807429      0.438136     -1.112471
  N       1.239619      0.904618     -1.529906
  N      -1.196644     -0.851556      1.595091
  N       1.771940     -0.532379      1.128480
  N       0.094731     -1.903150     -1.034118
  N      -0.103076      1.943369      0.954495
  H      -0.417494      2.679886      0.340283
  H      -0.727145      1.998568      1.745595
  H       0.777560      2.283809      1.310357
  H      -0.889381     -0.583520      2.518385
  H      -1.207574     -1.859992      1.625810
  H      -2.172386     -0.594660      1.574787
  H       1.992865      0.088508      1.892553
  H       1.715971     -1.442205      1.561875
  H       2.622178     -0.569328      0.586056
  H       0.969857     -2.396085     -0.936123
  H      -0.036922     -1.828470     -2.032007
  H      -0.600540     -2.575669     -0.747223
  H       0.765931      1.581943     -2.108644
  H       1.646301      0.257535     -2.188886
  H       2.030970      1.411152     -1.161457
  H      -2.372131      1.181055     -0.728232
  H      -1.659348      0.711172     -2.072497
  H      -2.440899     -0.345003     -1.176725
25
Coordinates from ORCA-job CrNH3_6 E -1379.849643296363
  Cr     -0.000341     -0.000535      0.000570
  N      -1.809800      0.438081     -1.110292
  N       1.241642      0.902749     -1.530161
  N      -1.197623     -0.848569      1.597546
  N       1.772607     -0.535403      1.127799
  N       0.096988     -1.902256     -1.037406
  N      -0.104805      1.944186      0.954343
  H      -0.391273      2.684362      0.331139
  H      -0.751077      2.007403      1.726580
  H       0.768988      2.273379      1.336260
  H      -0.879916     -0.589957      2.519833
  H      -1.221955     -1.856763      1.622708
  H      -2.169851     -0.578830      1.585935
  H       1.991136      0.079678      1.897021
  H       1.717611     -1.448669      1.553689
  H       2.623720     -0.566198      0.586691
  H       0.982217     -2.380859     -0.963947
  H      -0.062454     -1.827353     -2.031070
  H      -0.578948     -2.586854     -0.733917
  H       0.763966      1.562535     -2.125367
  H       1.667619      0.252827     -2.173727
  H       2.019059      1.428694     -1.159616
  H      -2.373281      1.181981     -0.726589
  H      -1.664231      0.708856     -2.071168
  H      -2.443310     -0.345135     -1.170973
25
Coordinates from ORCA-job CrNH3_6 E -1379.849659413125
  Cr     -0.000356     -0.000594      0.000622
  N      -1.812908      0.438383     -1.107828
  N       1.243939      0.901124     -1.531037
  N      -1.198170     -0.845906      1.600599
  N       1.773812     -0.538771      1.127072
  N       0.098725     -1.901779     -1.040982
  N      -0.106479      1.945594      0.954166
  H      -0.362482      2.689996      0.322644
  H      -0.776327      2.017657      1.705330
  H       0.758716      2.263087      1.364710
  H      -0.872483     -0.594336      2.522124
  H      -1.233650     -1.853930      1.622487
  H      -2.167653     -0.566091      1.595978
  H       1.987938      0.067634      1.904474
  H       1.722238     -1.457474      1.541726
  H       2.626755     -0.558883      0.588256
  H       0.992264     -2.367709     -0.989074
  H      -0.084461     -1.827367     -2.030653
  H      -0.559579     -2.597460     -0.723950
  H       0.762886      1.542020     -2.144033
  H       1.690068      0.248518     -2.158108
  H       2.006815      1.447476     -1.159551
  H      -2.373904      1.184963     -0.725543
  H      -1.670881      0.705144     -2.070432
  H      -2.448132     -0.343944     -1.163118
25
Coordinates from ORCA-job CrNH3_6 E -1379.849662232114
  Cr     -0.000311     -0.000536      0.000541
  N      -1.814216      0.439044     -1.106582
  N       1.244628      0.900485     -1.531803
  N      -1.197713     -0.845322      1.601845
  N       1.774505     -0.539927      1.126509
  N       0.098662     -1.901730     -1.042171
  N      -0.106940      1.946154      0.954143
  H      -0.348356      2.692908      0.319424
  H      -0.787990      2.022155      1.694970
  H       0.753699      2.258009      1.378719
  H      -0.870932     -0.594376      2.523305
  H      -1.235205     -1.853421      1.623964
  H      -2.166901     -0.563975      1.598309
  H       1.984596      0.060549      1.909788
  H       1.726570     -1.462538      1.533195
  H       2.628889     -0.551386      0.589465
  H       0.994513     -2.364118     -0.995966
  H      -0.090634     -1.827864     -2.030877
  H      -0.554653     -2.600735     -0.721663
  H       0.762119      1.532373     -2.153198
  H       1.699787      0.246507     -2.151137
  H       2.001059      1.456230     -1.160659
  H      -2.372589      1.188592     -0.725900
  H      -1.674090      0.702098     -2.070639
  H      -2.451805     -0.341826     -1.157702
25
Coordinates from ORCA-job CrNH3_6 E -1379.849669991924
  Cr     -0.000231     -0.000407      0.000379
  N      -1.814993      0.440306     -1.105429
  N       1.244635      0.899933     -1.532835
  N      -1.196386     -0.845664      1.602657
  N       1.775212     -0.540268      1.125723
  N       0.097446     -1.901771     -1.042630
  N      -0.106925      1.946352      0.954277
  H      -0.335021      2.695583      0.317315
  H      -0.798181      2.025428      1.685483
  H       0.749284      2.252787      1.391916
  H      -0.871705     -0.591989      2.524270
  H      -1.231481     -1.853949      1.626945
  H      -2.166469     -0.566904      1.597390
  H       1.979277      0.052937      1.916296
  H       1.732761     -1.467676      1.522337
  H       2.631350     -0.539912      0.591078
  H       0.993628     -2.363845     -0.996341
  H      -0.091614     -1.828469     -2.031577
  H      -0.555506     -2.601334     -0.722125
  H       0.760672      1.523444     -2.161762
  H       1.707478      0.244443     -2.145094
  H       1.995550      1.464053     -1.162711
  H      -2.369099      1.194577     -0.727460
  H      -1.676539      0.697627     -2.071431
  H      -2.456454     -0.337930     -1.150791
25
Coordinates from ORCA-job CrNH3_6 E -1379.849671901844
  Cr     -0.000139     -0.000240      0.000183
  N      -1.815208      0.442218     -1.104252
  N       1.243960      0.899233     -1.534067
  N      -1.194029     -0.846859      1.603195
  N       1.775919     -0.539832      1.124632
  N       0.094945     -1.901673     -1.042641
  N      -0.106484      1.946080      0.954611
  H      -0.320496      2.698053      0.315860
  H      -0.808309      2.027919      1.675510
  H       0.744854      2.246402      1.405959
  H      -0.874403     -0.587099      2.524969
  H      -1.222178     -1.855333      1.631587
  H      -2.166092     -0.574876      1.593565
  H       1.971517      0.044299      1.924155
  H       1.740988     -1.472980      1.508498
  H       2.634073     -0.523907      0.593306
  H       0.989738     -2.366144     -0.991697
  H      -0.088916     -1.828740     -2.032686
  H      -0.561532     -2.599310     -0.724898
  H       0.758164      1.513427     -2.170824
  H       1.714693      0.241975     -2.138533
  H       1.988955      1.472323     -1.165524
  H      -2.362977      1.203340     -0.730588
  H      -1.678143      0.691016     -2.072765
  H      -2.462212     -0.331941     -1.141674
25
Coordinates from ORCA-job CrNH3_6 E -1379.849677099574
  Cr     -0.000098     -0.000142      0.000085
  N      -1.814859      0.443860     -1.103535
  N       1.243063      0.898549     -1.534868
  N      -1.191684     -0.848238      1.603448
  N       1.776348     -0.538950      1.123731
  N       0.092271     -1.901323     -1.042572
  N      -0.105929      1.945479      0.955048
  H      -0.310198      2.699297      0.315354
  H      -0.814763      2.028974      1.668813
  H       0.742037      2.241249      1.415536
  H      -0.877479     -0.581840      2.525137
  H      -1.211487     -1.856731      1.636064
  H      -2.165823     -0.584166      1.589127
  H       1.964811      0.038383      1.929808
  H       1.747452     -1.476161      1.497930
  H       2.635870     -0.510805      0.595225
  H       0.984759     -2.369434     -0.985786
  H      -0.085099     -1.828152     -2.033738
  H      -0.569294     -2.595739     -0.728509
  H       0.755652      1.505643     -2.177087
  H       1.719532      0.240057     -2.133406
  H       1.983427      1.478330     -1.167585
  H      -2.357011      1.211010     -0.734164
  H      -1.678224      0.684762     -2.074043
  H      -2.466584     -0.326561     -1.134133
25
Coordinates from ORCA-job CrNH3_6 E -1379.849676229489
  Cr     -0.000112     -0.000131      0.000104
  N      -1.814470      0.444669     -1.103319
  N       1.242565      0.898068     -1.535085
  N      -1.190210     -0.849121      1.603665
  N       1.776525     -0.538302      1.123290
  N       0.090474     -1.900878     -1.042798
  N      -0.105630      1.945004      0.955429
  H      -0.305521      2.699524      0.315328
  H      -0.817356      2.029256      1.666084
  H       0.740953      2.238565      1.419639
  H      -0.879447     -0.578103      2.525068
  H      -1.203830     -1.857525      1.639153
  H      -2.165751     -0.590837      1.586437
  H       1.961317      0.036166      1.932129
  H       1.750427     -1.477153      1.493291
  H       2.636634     -0.504568      0.596259
  H       0.981055     -2.371949     -0.982447
  H      -0.082797     -1.826951     -2.034533
  H      -0.574871     -2.592703     -0.731318
  H       0.754155      1.501313     -2.180002
  H       1.722273      0.239143     -2.130387
  H       1.980119      1.481544     -1.168261
  H      -2.353550      1.215264     -0.736907
  H      -1.677528      0.680667     -2.074879
  H      -2.468731     -0.323612     -1.130061
25
Coordinates from ORCA-job CrNH3_6 E -1379.849678612961
  Cr     -0.000143     -0.000147      0.000166
  N      -1.814325      0.444946     -1.103279
  N       1.242499      0.897776     -1.535034
  N      -1.189363     -0.849567      1.603989
  N       1.776641     -0.538057      1.123106
  N       0.089394     -1.900477     -1.043283
  N      -0.105590      1.944795      0.955713
  H      -0.303408      2.699503      0.315285
  H      -0.818527      2.029648      1.664985
  H       0.740458      2.237328      1.421404
  H      -0.880441     -0.575566      2.525059
  H      -1.198886     -1.857892      1.641356
  H      -2.165823     -0.595139      1.585337
  H       1.959910      0.035592      1.932785
  H       1.751485     -1.477368      1.491825
  H       2.637012     -0.502457      0.596752
  H       0.978659     -2.373689     -0.981406
  H      -0.081871     -1.825588     -2.035224
  H      -0.578313     -2.590630     -0.733340
  H       0.753513      1.498734     -2.181543
  H       1.724478      0.238861     -2.128391
  H       1.978089      1.483600     -1.168182
  H      -2.352013      1.217366     -0.738846
  H      -1.676939      0.678057     -2.075401
  H      -2.469804     -0.322280     -1.127955
