25
	Energy:      81.0437434
Cr         0.00000        0.00039       -0.00067
N         -1.82626        0.49485       -1.14143
N          1.24065        0.89272       -1.59603
N         -1.23963       -0.89241        1.59573
N          1.82520       -0.49500        1.14178
N          0.10344       -1.95964       -1.01506
N         -0.10396        1.95939        1.01567
H         -0.50679        2.66944        0.36457
H         -0.70801        1.89220        1.86457
H          0.85334        2.26718        1.29663
H         -0.92227       -0.53611        2.52461
H         -1.14614       -1.93213        1.58403
H         -2.24140       -0.63420        1.45398
H          1.97525        0.20189        1.90445
H          1.72144       -1.44369        1.56583
H          2.65341       -0.49512        0.50588
H          0.99195       -2.44582       -0.76124
H          0.07143       -1.82157       -2.04952
H         -0.70746       -2.55250       -0.73057
H          0.69416        1.61849       -2.11044
H          1.55204        0.15535       -2.26614
H          2.08090        1.34423       -1.17110
H         -2.33678        1.27754       -0.67562
H         -1.57927        0.77489       -2.11629
H         -2.44855       -0.34302       -1.17774
