7
Coordinates from ORCA-job test E -1485.508271229899
  Cr      0.000000      0.000000      0.000000
  O       1.531920      1.186540      0.951670
  O      -1.531920     -1.186540     -0.951670
  O       1.332070     -0.394540     -1.652350
  O      -1.332070      0.394540      1.652350
  O      -0.734260      1.759770     -1.012130
  O       0.734260     -1.759770      1.012130
7
Coordinates from ORCA-job test E -1485.557423531213
  Cr     -0.000000     -0.000000      0.000000
  O       1.573557      1.218790      0.977534
  O      -1.573557     -1.218790     -0.977534
  O       1.370809     -0.399389     -1.708661
  O      -1.370809      0.399389      1.708661
  O      -0.751368      1.812792     -1.050697
  O       0.751368     -1.812792      1.050697
7
Coordinates from ORCA-job test E -1485.600219149074
  Cr      0.000000     -0.000000     -0.000000
  O       1.616170      1.251796      1.004007
  O      -1.616170     -1.251796     -1.004007
  O       1.410879     -0.408547     -1.761745
  O      -1.410879      0.408547      1.761745
  O      -0.771823      1.866733     -1.085024
  O       0.771823     -1.866733      1.085024
7
Coordinates from ORCA-job test E -1485.638222677473
  Cr      0.000000     -0.000000     -0.000000
  O       1.659654      1.285476      1.031021
  O      -1.659654     -1.285476     -1.031021
  O       1.451296     -0.419156     -1.813577
  O      -1.451296      0.419156      1.813577
  O      -0.793243      1.920541     -1.117631
  O       0.793243     -1.920541      1.117631
7
Coordinates from ORCA-job test E -1485.674408593244
  Cr      0.000000     -0.000000     -0.000000
  O       1.703848      1.319706      1.058475
  O      -1.703848     -1.319706     -1.058475
  O       1.491762     -0.430440     -1.864648
  O      -1.491762      0.430440      1.864647
  O      -0.815069      1.974121     -1.149302
  O       0.815069     -1.974121      1.149302
7
Coordinates from ORCA-job test E -1485.746645759312
  Cr      0.000000     -0.000000     -0.000000
  O       1.746761      1.352944      1.085134
  O      -1.746761     -1.352944     -1.085134
  O       1.532789     -0.441981     -1.916300
  O      -1.532789      0.441981      1.916300
  O      -0.837256      2.028401     -1.181264
  O       0.837256     -2.028401      1.181264
7
Coordinates from ORCA-job test E -1485.796658418478
  Cr      0.069131     -0.019827     -0.086561
  O       1.762446      1.377911      1.110470
  O      -1.782201     -1.367576     -1.091556
  O       1.636127     -0.480772     -2.034280
  O      -1.476770      0.425232      1.847007
  O      -0.951944      2.078238     -1.058784
  O       0.743211     -2.013206      1.313704
7
Coordinates from ORCA-job test E -1485.843240745770
  Cr      0.072035     -0.020678     -0.090175
  O       1.804532      1.411716      1.138863
  O      -1.826635     -1.400784     -1.116912
  O       1.680088     -0.493587     -2.089068
  O      -1.514604      0.436238      1.894186
  O      -0.977511      2.132918     -1.085804
  O       0.762095     -2.065824      1.348911
7
Coordinates from ORCA-job test E -1485.887868474794
  Cr      0.089042     -0.025551     -0.111476
  O       1.843058      1.446889      1.171795
  O      -1.874951     -1.432875     -1.137929
  O       1.740659     -0.513233     -2.162075
  O      -1.534318      0.443036      1.917445
  O      -1.021857      2.186527     -1.081258
  O       0.758368     -2.104793      1.403497
7
Coordinates from ORCA-job test E -1485.929235034439
  Cr      0.100922     -0.029061     -0.126223
  O       1.882568      1.482763      1.205757
  O      -1.924466     -1.465953     -1.159271
  O       1.796018     -0.530766     -2.229327
  O      -1.559594      0.451941      1.947030
  O      -1.058783      2.239175     -1.087459
  O       0.763336     -2.148098      1.449492
7
Coordinates from ORCA-job test E -1485.968234296659
  Cr      0.109206     -0.031612     -0.136377
  O       1.923081      1.519094      1.240082
  O      -1.974570     -1.499810     -1.181240
  O       1.847556     -0.546720     -2.292398
  O      -1.588786      0.462150      1.981292
  O      -1.090635      2.291300     -1.101176
  O       0.774148     -2.194401      1.489817
7
Coordinates from ORCA-job test E -1486.005477333270
  Cr      0.115077     -0.033487     -0.143490
  O       1.964582      1.555839      1.274489
  O      -2.025058     -1.534314     -1.203978
  O       1.896533     -0.561720     -2.352535
  O      -1.620611      0.473143      2.018815
  O      -1.119186      2.342996     -1.119671
  O       0.788663     -2.242458      1.526370
7
Coordinates from ORCA-job test E -1486.041532372620
  Cr      0.119362     -0.034908     -0.148616
  O       2.007054      1.592966      1.308902
  O      -2.075852     -1.569427     -1.227505
  O       1.943747     -0.576004     -2.410727
  O      -1.654157      0.484507      2.058646
  O      -1.145481      2.394211     -1.141198
  O       0.805328     -2.291346      1.560498
7
Coordinates from ORCA-job test E -1486.077172293324
  Cr      0.122594     -0.036001     -0.152457
  O       2.050375      1.630445      1.343293
  O      -2.126914     -1.605051     -1.251747
  O       1.989782     -0.589819     -2.467606
  O      -1.688774      0.495963      2.100086
  O      -1.170262      2.444992     -1.164621
  O       0.823200     -2.340530      1.593051
7
Coordinates from ORCA-job test E -1486.113599397394
  Cr      0.125164     -0.036843     -0.155544
  O       2.094122      1.668092      1.377578
  O      -2.178043     -1.640891     -1.276402
  O       2.035320     -0.603438     -2.523930
  O      -1.723882      0.507242      2.142537
  O      -1.194232      2.495570     -1.189097
  O       0.841550     -2.389732      1.624858
7
Coordinates from ORCA-job test E -1486.151663557680
  Cr      0.128790     -0.040000     -0.157443
  O       2.137046      1.705074      1.411825
  O      -2.228626     -1.676333     -1.300243
  O       2.080781     -0.614571     -2.583228
  O      -1.760262      0.522307      2.182317
  O      -1.218046      2.544380     -1.211619
  O       0.860317     -2.440857      1.658391
7
Coordinates from ORCA-job test E -1486.203503795540
  Cr      0.126502     -0.029154     -0.167283
  O       2.179236      1.740728      1.445374
  O      -2.277729     -1.711389     -1.323408
  O       2.132929     -0.642013     -2.632958
  O      -1.787331      0.516493      2.233138
  O      -1.247815      2.606502     -1.241153
  O       0.874208     -2.481168      1.686290
7
Coordinates from ORCA-job test E -1486.250360713812
  Cr      0.106492      0.032294     -0.211685
  O       2.218998      1.747394      1.484547
  O      -2.307721     -1.758751     -1.327568
  O       2.211939     -0.740392     -2.637482
  O      -1.783692      0.462422      2.294697
  O      -1.321755      2.727313     -1.272757
  O       0.875741     -2.470281      1.670248
7
Coordinates from ORCA-job test E -1486.295863729088
  Cr      0.095873      0.065391     -0.235858
  O       2.258826      1.766132      1.521726
  O      -2.345883     -1.800420     -1.338839
  O       2.273663     -0.798006     -2.665006
  O      -1.797581      0.437777      2.347782
  O      -1.372122      2.819420     -1.306520
  O       0.887225     -2.490294      1.676715
7
Coordinates from ORCA-job test E -1486.340364222414
  Cr      0.088341      0.088581     -0.252647
  O       2.298540      1.788791      1.557430
  O      -2.386180     -1.839734     -1.352839
  O       2.329309     -0.840732     -2.701312
  O      -1.817316      0.422876      2.398128
  O      -1.413974      2.901058     -1.340936
  O       0.901279     -2.520839      1.692175
7
Coordinates from ORCA-job test E -1486.384530005117
  Cr      0.083289      0.104774     -0.264704
  O       2.337951      1.814789      1.592039
  O      -2.428394     -1.876957     -1.368938
  O       2.381651     -0.873464     -2.744757
  O      -1.840617      0.414081      2.446602
  O      -1.450043      2.974917     -1.374963
  O       0.916162     -2.558139      1.714722
7
Coordinates from ORCA-job test E -1486.448979347860
  Cr      0.082050      0.108095     -0.266851
  O       2.381556      1.850843      1.627252
  O      -2.478860     -1.913766     -1.392165
  O       2.425385     -0.885498     -2.800152
  O      -1.871090      0.416457      2.492692
  O      -1.471432      3.029713     -1.408852
  O       0.932392     -2.605844      1.748075
7
Coordinates from ORCA-job test E -1486.486116158320
  Cr      0.062189      0.172355     -0.315000
  O       2.400620      1.839656      1.658818
  O      -2.490020     -1.948362     -1.379375
  O       2.493051     -0.980640     -2.790452
  O      -1.851535      0.351281      2.542475
  O      -1.549309      3.166104     -1.453545
  O       0.935003     -2.600394      1.737079
7
Coordinates from ORCA-job test E -1486.534199238532
  Cr      0.074533      0.114520     -0.262760
  O       2.449133      1.903192      1.678979
  O      -2.552542     -1.970828     -1.428191
  O       2.508159     -0.916246     -2.895059
  O      -1.937597      0.430035      2.582820
  O      -1.517094      3.140484     -1.473459
  O       0.975407     -2.701157      1.797670
7
Coordinates from ORCA-job test E -1486.582787096874
  Cr      0.081020      0.087572     -0.239604
  O       2.488489      1.950548      1.705786
  O      -2.606535     -1.995775     -1.459375
  O       2.542806     -0.895797     -2.976326
  O      -1.994285      0.469959      2.624295
  O      -1.516977      3.161371     -1.499688
  O       1.005482     -2.777877      1.844912
7
Coordinates from ORCA-job test E -1486.630908035027
  Cr      0.087761      0.064590     -0.221801
  O       2.524584      1.996041      1.734818
  O      -2.660444     -2.019994     -1.486257
  O       2.581557     -0.881941     -3.055982
  O      -2.045299      0.504033      2.663931
  O      -1.521084      3.186981     -1.525007
  O       1.032926     -2.849711      1.890298
7
Coordinates from ORCA-job test E -1486.678627122430
  Cr      0.094348      0.044773     -0.207696
  O       2.558606      2.039863      1.765506
  O      -2.714071     -2.044060     -1.510018
  O       2.623397     -0.872975     -3.134509
  O      -2.092664      0.534102      2.702685
  O      -1.528184      3.216003     -1.549764
  O       1.058569     -2.917706      1.933796
7
Coordinates from ORCA-job test E -1486.725973561699
  Cr      0.100521      0.027892     -0.196586
  O       2.591232      2.082014      1.797480
  O      -2.767189     -2.068321     -1.531310
  O       2.667936     -0.868298     -3.212038
  O      -2.137294      0.560891      2.741126
  O      -1.537920      3.248094     -1.574102
  O       1.082714     -2.982272      1.975430
7
Coordinates from ORCA-job test E -1486.772947414947
  Cr      0.106151      0.013695     -0.187949
  O       2.622935      2.122585      1.830425
  O      -2.819675     -2.092959     -1.550666
  O       2.714871     -0.867412     -3.288694
  O      -2.179814      0.584921      2.779612
  O      -1.550018      3.282936     -1.598068
  O       1.105551     -3.043766      2.015340
7
Coordinates from ORCA-job test E -1486.819525346575
  Cr      0.111172      0.001910     -0.181337
  O       2.654075      2.161719      1.864056
  O      -2.871466     -2.118058     -1.568554
  O       2.763892     -0.869843     -3.364572
  O      -2.220713      0.606619      2.818394
  O      -1.564204      3.320201     -1.621696
  O       1.127243     -3.102547      2.053709
7
Coordinates from ORCA-job test E -1486.865667378627
  Cr      0.115554     -0.007749     -0.176349
  O       2.684940      2.199585      1.898123
  O      -2.922538     -2.143657     -1.585388
  O       2.814675     -0.875125     -3.439735
  O      -2.260386      0.626357      2.857647
  O      -1.580196      3.359563     -1.645029
  O       1.147950     -3.158975      2.090731
7
Coordinates from ORCA-job test E -1486.911323704788
  Cr      0.119298     -0.015566     -0.172629
  O       2.715760      2.236357      1.932412
  O      -2.972896     -2.169760     -1.601529
  O       2.866894     -0.882802     -3.514219
  O      -2.299164      0.644466      2.897490
  O      -1.597719      3.400710     -1.668125
  O       1.167826     -3.213405      2.126600
7
Coordinates from ORCA-job test E -1486.956440702725
  Cr      0.122423     -0.021815     -0.169867
  O       2.746714      2.272212      1.966749
  O      -3.022569     -2.196355     -1.617279
  O       2.920234     -0.892453     -3.588050
  O      -2.337311      0.661233      2.937991
  O      -1.616507      3.443351     -1.691045
  O       1.187016     -3.266173      2.161501
7
Coordinates from ORCA-job test E -1487.000965654047
  Cr      0.124965     -0.026752     -0.167805
  O       2.777937      2.307311      2.001003
  O      -3.071602     -2.223418     -1.632883
  O       2.974412     -0.903691     -3.661249
  O      -2.375041      0.676910      2.979180
  O      -1.636322      3.487224     -1.713850
  O       1.205650     -3.317584      2.195604
7
Coordinates from ORCA-job test E -1487.044849168642
  Cr      0.126973     -0.030606     -0.166232
  O       2.809527      2.341805      2.035074
  O      -3.120052     -2.250918     -1.648534
  O       3.029179     -0.916180     -3.733838
  O      -2.412520      0.691713      3.021053
  O      -1.656950      3.532094     -1.736589
  O       1.223842     -3.367909      2.229066
7
Coordinates from ORCA-job test E -1487.088051119977
  Cr      0.128495     -0.033569     -0.164987
  O       2.841547      2.375818      2.068903
  O      -3.167978     -2.278827     -1.664370
  O       3.084335     -0.929646     -3.805835
  O      -2.449868      0.705815      3.063591
  O      -1.678219      3.577777     -1.759309
  O       1.241687     -3.417369      2.262007
7
Coordinates from ORCA-job test E -1487.130534909361
  Cr      0.129590     -0.035817     -0.163947
  O       2.874036      2.409465      2.102454
  O      -3.215448     -2.307111     -1.680491
  O       3.139714     -0.943847     -3.877273
  O      -2.487176      0.719369      3.106749
  O      -1.699979      3.624101     -1.782039
  O       1.259263     -3.466160      2.294546
7
Coordinates from ORCA-job test E -1487.172272315898
  Cr      0.130313     -0.037493     -0.163021
  O       2.907008      2.442838      2.135710
  O      -3.262523     -2.335738     -1.696963
  O       3.195189     -0.958595     -3.948183
  O      -2.524505      0.732492      3.150475
  O      -1.722112      3.670930     -1.804797
  O       1.276629     -3.514432      2.326778
7
Coordinates from ORCA-job test E -1487.213242894321
  Cr      0.130717     -0.038714     -0.162149
  O       2.940469      2.476013      2.168671
  O      -3.309262     -2.364682     -1.713824
  O       3.250662     -0.973743     -4.018595
  O      -2.561895      0.745278      3.194721
  O      -1.744527      3.718157     -1.827599
  O       1.293835     -3.562310      2.358775
7
Coordinates from ORCA-job test E -1487.253432233316
  Cr      0.130851     -0.039577     -0.161289
  O       2.974407      2.509053      2.201346
  O      -3.355721     -2.393913     -1.731094
  O       3.306065     -0.989171     -4.088541
  O      -2.599368      0.757803      3.239426
  O      -1.767150      3.765695     -1.850450
  O       1.310916     -3.609890      2.390602
7
Coordinates from ORCA-job test E -1487.292831630677
  Cr      0.130763     -0.040162     -0.160417
  O       3.008804      2.542009      2.233754
  O      -3.401950     -2.423405     -1.748773
  O       3.361348     -1.004791     -4.158056
  O      -2.636936      0.770125      3.284537
  O      -1.789928      3.813471     -1.873352
  O       1.327900     -3.657247      2.422307
7
Coordinates from ORCA-job test E -1487.331437327302
  Cr      0.130493     -0.040533     -0.159521
  O       3.043636      2.574921      2.265918
  O      -3.447996     -2.453137     -1.766853
  O       3.416478     -1.020533     -4.227172
  O      -2.674600      0.782290      3.329999
  O      -1.812819      3.861432     -1.896302
  O       1.344808     -3.704440      2.453931
7
Coordinates from ORCA-job test E -1487.369249757789
  Cr      0.130080     -0.040739     -0.158598
  O       3.078876      2.607821      2.297863
  O      -3.493898     -2.483085     -1.785315
  O       3.471435     -1.036349     -4.295920
  O      -2.712357      0.794332      3.375762
  O      -1.835791      3.909534     -1.919297
  O       1.361655     -3.751514      2.485504
7
Coordinates from ORCA-job test E -1487.406268961035
  Cr      0.129555     -0.040821     -0.157651
  O       3.114500      2.640732      2.329611
  O      -3.539688     -2.513232     -1.804143
  O       3.526211     -1.052202     -4.364327
  O      -2.750196      0.806275      3.421782
  O      -1.858828      3.957747     -1.942325
  O       1.378447     -3.798499      2.517054
7
Coordinates from ORCA-job test E -1487.442510531346
  Cr      0.128948     -0.040811     -0.156687
  O       3.150477      2.673674      2.361186
  O      -3.585397     -2.543559     -1.823314
  O       3.580802     -1.068068     -4.432422
  O      -2.788106      0.818138      3.468016
  O      -1.881916      4.006045     -1.965379
  O       1.395192     -3.845420      2.548600
7
Coordinates from ORCA-job test E -1487.477980785874
  Cr      0.128276     -0.040734     -0.155702
  O       3.186767      2.706659      2.392629
  O      -3.631058     -2.574050     -1.842781
  O       3.635199     -1.083918     -4.500225
  O      -2.826088      0.829948      3.514433
  O      -1.905019      4.054405     -1.988485
  O       1.411923     -3.892311      2.580131
7
Coordinates from ORCA-job test E -1487.512685832488
  Cr      0.127565     -0.040608     -0.154714
  O       3.223351      2.739697      2.423951
  O      -3.676688     -2.604690     -1.862532
  O       3.689417     -1.099749     -4.567761
  O      -2.864122      0.841706      3.560996
  O      -1.928149      4.102819     -2.011615
  O       1.428626     -3.939174      2.611674
7
Coordinates from ORCA-job test E -1487.546641175213
  Cr      0.126831     -0.040449     -0.153731
  O       3.260202      2.772794      2.455173
  O      -3.722303     -2.635467     -1.882540
  O       3.743459     -1.115554     -4.635050
  O      -2.902198      0.853422      3.607680
  O      -1.951298      4.151276     -2.034766
  O       1.445307     -3.986023      2.643233
7
Coordinates from ORCA-job test E -1487.579860525937
  Cr      0.126086     -0.040267     -0.152759
  O       3.297296      2.805954      2.486312
  O      -3.767916     -2.666367     -1.902781
  O       3.797335     -1.131326     -4.702110
  O      -2.940306      0.865101      3.654461
  O      -1.974465      4.199769     -2.057936
  O       1.461969     -4.032864      2.674813
7
Coordinates from ORCA-job test E -1487.612358669594
  Cr      0.125342     -0.040070     -0.151807
  O       3.334609      2.839179      2.517383
  O      -3.813539     -2.697381     -1.923233
  O       3.851054     -1.147067     -4.768958
  O      -2.978436      0.876748      3.701320
  O      -1.997646      4.248294     -2.081122
  O       1.478616     -4.079704      2.706417
