!PAL2
!ALLPOP
!hf DEF2-SVP 
!LARGEPRINT


*xyz 3 4
	Cr      -0.9760466249     -0.0892193769     -0.1428591126                 
	N       -0.5518839053      0.0650435319     -1.1937987200                 
	N       -1.3306930170     -0.2033796497      0.9383829339                 
	N       -0.0646928244     -0.6784280282      0.2155059976                 
	N       -1.9678486217      0.4252871834     -0.3830060865                 
	N       -1.2838633461     -1.1482857932     -0.4418554457                 
	N       -0.6713672003      1.0032125138      0.0033866529                 
	H       -1.3893490279     -1.1757471782      1.3050640488                 
	H       -0.1386612632     -1.4789858895      0.8796008643                 
	H       -0.8006227094      1.7271222364     -0.7358606850                 
	H        0.4666640774      0.2759149075     -1.1581518020                 
	H       -0.6647197262     -1.6872080972     -1.0848227996                 
	H       -2.3809681352      1.0781166330      0.3173078825                 
	H       -0.9342843997      0.8667790738     -1.7372273396                 
	H       -0.5877358871     -0.6874862271     -1.9102197718                 
	H       -0.6628515596      0.2509009043      1.5950582529                 
	H       -2.2386903014      0.1840082004      1.2653489759                 
	H        0.5490496499     -0.0157309365      0.7263024533                 
	H        0.5677953284     -1.0675830022     -0.5125222124                 
	H       -2.7406041858     -0.2568137914     -0.5043585670                 
	H       -2.0227910832      0.9822683058     -1.2597159223                 
	H       -2.1838406076     -1.1693336279     -0.9580087724                 
	H       -1.4543449286     -1.8325441482      0.3237094276                 
	H       -1.0431405435      1.4952139768      0.8405768212                 
	H        0.3541381711      1.0185608761      0.1617299793                 
*
