6
* (null), Energy   -1000.0000000
C     0.026642    0.000026   -0.000017    1.749440    0.002328    0.001958
Cl    2.070407   -0.000118    0.000040   -0.183660   -0.000552   -0.000400
H    -0.119533    1.072596   -0.000051   -0.311368   -0.184466    0.002900
H    -0.119690   -0.536167    0.928868   -0.310984    0.097442   -0.158828
H    -0.119639   -0.536219   -0.928879   -0.313100    0.096610    0.163138
F    -2.099830    0.000092   -0.000092   -0.713670   -0.000950   -0.000874
6
* Frequency(6) -555.0900
C     0.225457    0.000291    0.000206    1.749440    0.002328    0.001958
Cl    2.049535   -0.000181   -0.000005   -0.183660   -0.000552   -0.000400
H    -0.154918    1.051632    0.000279   -0.311368   -0.184466    0.002900
H    -0.155032   -0.525093    0.910818   -0.310984    0.097442   -0.158828
H    -0.155221   -0.525240   -0.910339   -0.313100    0.096610    0.163138
F    -2.180935   -0.000016   -0.000191   -0.713670   -0.000950   -0.000874
6
* Frequency(6) -555.0900
C     0.402727    0.000526    0.000404    1.749440    0.002328    0.001958
Cl    2.030925   -0.000237   -0.000046   -0.183660   -0.000552   -0.000400
H    -0.186469    1.032941    0.000572   -0.311368   -0.184466    0.002900
H    -0.186544   -0.515219    0.894724   -0.310984    0.097442   -0.158828
H    -0.186948   -0.515450   -0.893808   -0.313100    0.096610    0.163138
F    -2.253251   -0.000112   -0.000280   -0.713670   -0.000950   -0.000874
6
* Frequency(6) -555.0900
C     0.539242    0.000708    0.000557    1.749440    0.002328    0.001958
Cl    2.016593   -0.000280   -0.000077   -0.183660   -0.000552   -0.000400
H    -0.210766    1.018546    0.000799   -0.311368   -0.184466    0.002900
H    -0.210811   -0.507616    0.882330   -0.310984    0.097442   -0.158828
H    -0.211380   -0.507911   -0.881078   -0.313100    0.096610    0.163138
F    -2.308941   -0.000186   -0.000348   -0.713670   -0.000950   -0.000874
6
* Frequency(6) -555.0900
C     0.620210    0.000816    0.000647    1.749440    0.002328    0.001958
Cl    2.008093   -0.000305   -0.000096   -0.183660   -0.000552   -0.000400
H    -0.225177    1.010009    0.000933   -0.311368   -0.184466    0.002900
H    -0.225204   -0.503106    0.874979   -0.310984    0.097442   -0.158828
H    -0.225871   -0.503440   -0.873528   -0.313100    0.096610    0.163138
F    -2.341971   -0.000230   -0.000389   -0.713670   -0.000950   -0.000874
6
* Frequency(6) -555.0900
C     0.636855    0.000838    0.000666    1.749440    0.002328    0.001958
Cl    2.006346   -0.000311   -0.000100   -0.183660   -0.000552   -0.000400
H    -0.228140    1.008253    0.000961   -0.311368   -0.184466    0.002900
H    -0.228163   -0.502179    0.873468   -0.310984    0.097442   -0.158828
H    -0.228850   -0.502521   -0.871976   -0.313100    0.096610    0.163138
F    -2.348761   -0.000239   -0.000397   -0.713670   -0.000950   -0.000874
6
* Frequency(6) -555.0900
C     0.587374    0.000772    0.000611    1.749440    0.002328    0.001958
Cl    2.011540   -0.000295   -0.000088   -0.183660   -0.000552   -0.000400
H    -0.219333    1.013471    0.000879   -0.311368   -0.184466    0.002900
H    -0.219367   -0.504935    0.877960   -0.310984    0.097442   -0.158828
H    -0.219994   -0.505253   -0.876590   -0.313100    0.096610    0.163138
F    -2.328576   -0.000212   -0.000372   -0.713670   -0.000950   -0.000874
6
* Frequency(6) -555.0900
C     0.477129    0.000625    0.000487    1.749440    0.002328    0.001958
Cl    2.023114   -0.000260   -0.000063   -0.183660   -0.000552   -0.000400
H    -0.199711    1.025095    0.000696   -0.311368   -0.184466    0.002900
H    -0.199769   -0.511075    0.887969   -0.310984    0.097442   -0.158828
H    -0.200263   -0.511342   -0.886870   -0.313100    0.096610    0.163138
F    -2.283602   -0.000153   -0.000317   -0.713670   -0.000950   -0.000874
6
* Frequency(6) -555.0900
C     0.318066    0.000414    0.000309    1.749440    0.002328    0.001958
Cl    2.039813   -0.000210   -0.000027   -0.183660   -0.000552   -0.000400
H    -0.171401    1.041867    0.000432   -0.311368   -0.184466    0.002900
H    -0.171494   -0.519935    0.902410   -0.310984    0.097442   -0.158828
H    -0.171796   -0.520126   -0.901703   -0.313100    0.096610    0.163138
F    -2.218714   -0.000066   -0.000238   -0.713670   -0.000950   -0.000874
6
* Frequency(6) -555.0900
C     0.127424    0.000160    0.000096    1.749440    0.002328    0.001958
Cl    2.059827   -0.000150    0.000017   -0.183660   -0.000552   -0.000400
H    -0.137470    1.061969    0.000116   -0.311368   -0.184466    0.002900
H    -0.137605   -0.530554    0.919718   -0.310984    0.097442   -0.158828
H    -0.137676   -0.530653   -0.919481   -0.313100    0.096610    0.163138
F    -2.140943    0.000037   -0.000142   -0.713670   -0.000950   -0.000874
6
* Frequency(6) -555.0900
C    -0.074140   -0.000108   -0.000130    1.749440    0.002328    0.001958
Cl    2.080987   -0.000086    0.000063   -0.183660   -0.000552   -0.000400
H    -0.101596    1.083223   -0.000218   -0.311368   -0.184466    0.002900
H    -0.101775   -0.541780    0.938018   -0.310984    0.097442   -0.158828
H    -0.101602   -0.541785   -0.938277   -0.313100    0.096610    0.163138
F    -2.058717    0.000147   -0.000042   -0.713670   -0.000950   -0.000874
6
* Frequency(6) -555.0900
C    -0.264782   -0.000362   -0.000343    1.749440    0.002328    0.001958
Cl    2.101001   -0.000026    0.000107   -0.183660   -0.000552   -0.000400
H    -0.067665    1.103325   -0.000534   -0.311368   -0.184466    0.002900
H    -0.067886   -0.552399    0.955326   -0.310984    0.097442   -0.158828
H    -0.067482   -0.552312   -0.956055   -0.313100    0.096610    0.163138
F    -1.980946    0.000250    0.000054   -0.713670   -0.000950   -0.000874
6
* Frequency(6) -555.0900
C    -0.423845   -0.000573   -0.000521    1.749440    0.002328    0.001958
Cl    2.117700    0.000024    0.000143   -0.183660   -0.000552   -0.000400
H    -0.039355    1.120097   -0.000798   -0.311368   -0.184466    0.002900
H    -0.039611   -0.561259    0.969767   -0.310984    0.097442   -0.158828
H    -0.039015   -0.561096   -0.970888   -0.313100    0.096610    0.163138
F    -1.916058    0.000337    0.000133   -0.713670   -0.000950   -0.000874
6
* Frequency(6) -555.0900
C    -0.534090   -0.000720   -0.000645    1.749440    0.002328    0.001958
Cl    2.129274    0.000059    0.000168   -0.183660   -0.000552   -0.000400
H    -0.019733    1.131721   -0.000981   -0.311368   -0.184466    0.002900
H    -0.020013   -0.567399    0.979776   -0.310984    0.097442   -0.158828
H    -0.019284   -0.567185   -0.981168   -0.313100    0.096610    0.163138
F    -1.871084    0.000396    0.000188   -0.713670   -0.000950   -0.000874
6
* Frequency(6) -555.0900
C    -0.583571   -0.000786   -0.000700    1.749440    0.002328    0.001958
Cl    2.134468    0.000075    0.000180   -0.183660   -0.000552   -0.000400
H    -0.010926    1.136939   -0.001063   -0.311368   -0.184466    0.002900
H    -0.011217   -0.570155    0.984268   -0.310984    0.097442   -0.158828
H    -0.010428   -0.569917   -0.985782   -0.313100    0.096610    0.163138
F    -1.850899    0.000423    0.000213   -0.713670   -0.000950   -0.000874
6
* Frequency(6) -555.0900
C    -0.566926   -0.000764   -0.000681    1.749440    0.002328    0.001958
Cl    2.132721    0.000069    0.000176   -0.183660   -0.000552   -0.000400
H    -0.013889    1.135183   -0.001035   -0.311368   -0.184466    0.002900
H    -0.014176   -0.569228    0.982757   -0.310984    0.097442   -0.158828
H    -0.013407   -0.568998   -0.984230   -0.313100    0.096610    0.163138
F    -1.857689    0.000414    0.000205   -0.713670   -0.000950   -0.000874
6
* Frequency(6) -555.0900
C    -0.485958   -0.000656   -0.000591    1.749440    0.002328    0.001958
Cl    2.124221    0.000044    0.000157   -0.183660   -0.000552   -0.000400
H    -0.028300    1.126646   -0.000901   -0.311368   -0.184466    0.002900
H    -0.028569   -0.564718    0.975406   -0.310984    0.097442   -0.158828
H    -0.027898   -0.564527   -0.976680   -0.313100    0.096610    0.163138
F    -1.890719    0.000370    0.000164   -0.713670   -0.000950   -0.000874
6
* Frequency(6) -555.0900
C    -0.349443   -0.000474   -0.000438    1.749440    0.002328    0.001958
Cl    2.109889    0.000001    0.000126   -0.183660   -0.000552   -0.000400
H    -0.052597    1.112251   -0.000674   -0.311368   -0.184466    0.002900
H    -0.052836   -0.557115    0.963012   -0.310984    0.097442   -0.158828
H    -0.052330   -0.556988   -0.963950   -0.313100    0.096610    0.163138
F    -1.946409    0.000296    0.000096   -0.713670   -0.000950   -0.000874
6
* Frequency(6) -555.0900
C    -0.172173   -0.000239   -0.000240    1.749440    0.002328    0.001958
Cl    2.091279   -0.000055    0.000085   -0.183660   -0.000552   -0.000400
H    -0.084148    1.093560   -0.000381   -0.311368   -0.184466    0.002900
H    -0.084348   -0.547241    0.946918   -0.310984    0.097442   -0.158828
H    -0.084057   -0.547198   -0.947419   -0.313100    0.096610    0.163138
F    -2.018725    0.000200    0.000007   -0.713670   -0.000950   -0.000874
6
* Frequency(6) -555.0900
C     0.026642    0.000026   -0.000017    1.749440    0.002328    0.001958
Cl    2.070407   -0.000118    0.000040   -0.183660   -0.000552   -0.000400
H    -0.119533    1.072596   -0.000051   -0.311368   -0.184466    0.002900
H    -0.119690   -0.536167    0.928868   -0.310984    0.097442   -0.158828
H    -0.119639   -0.536219   -0.928879   -0.313100    0.096610    0.163138
F    -2.099830    0.000092   -0.000092   -0.713670   -0.000950   -0.000874
