10
* (null), Energy   -1000.0000000
C     0.007478   -0.037711   -0.028716   -0.000310   -0.071844   -0.042824
C     1.479849    0.081525   -0.043216   -0.000332    0.128820    0.076670
H    -0.453244    0.953212   -0.138009   -0.186150   -0.143652    0.169526
H    -0.379409   -0.492653    0.892357    0.000968   -0.364830   -0.218150
H    -0.322649   -0.651995   -0.877534    0.186462    0.081780   -0.205814
C     2.327250    0.550560   -1.076563    0.000078   -0.075098   -0.044498
H     2.064663    0.439873   -2.122433   -0.654498    0.519326   -0.309534
H     3.208884   -0.015968    0.079173    0.000104   -1.221022   -0.725552
H     2.923056    1.448763   -0.895730    0.654926   -0.026810    0.602862
O     2.229836   -0.320459    0.931112    0.000310    0.086386    0.051258
10
* Frequency(7) -339.3600
C     0.007443   -0.045876   -0.033583   -0.000310   -0.071844   -0.042824
C     1.479811    0.096165   -0.034503   -0.000332    0.128820    0.076670
H    -0.474399    0.936887   -0.118743   -0.186150   -0.143652    0.169526
H    -0.379299   -0.534114    0.867565    0.000968   -0.364830   -0.218150
H    -0.301459   -0.642701   -0.900924    0.186462    0.081780   -0.205814
C     2.327259    0.542026   -1.081620    0.000078   -0.075098   -0.044498
H     1.990283    0.498892   -2.157610   -0.654498    0.519326   -0.309534
H     3.208896   -0.154731   -0.003282    0.000104   -1.221022   -0.725552
H     2.997485    1.445716   -0.827218    0.654926   -0.026810    0.602862
O     2.229871   -0.310642    0.936937    0.000310    0.086386    0.051258
10
* Frequency(7) -339.3600
C     0.007411   -0.053156   -0.037922   -0.000310   -0.071844   -0.042824
C     1.479778    0.109218   -0.026734   -0.000332    0.128820    0.076670
H    -0.493261    0.922330   -0.101565   -0.186150   -0.143652    0.169526
H    -0.379201   -0.571082    0.845460    0.000968   -0.364830   -0.218150
H    -0.282564   -0.634414   -0.921779    0.186462    0.081780   -0.205814
C     2.327267    0.534416   -1.086129    0.000078   -0.075098   -0.044498
H     1.923963    0.551515   -2.188975   -0.654498    0.519326   -0.309534
H     3.208906   -0.278457   -0.076802    0.000104   -1.221022   -0.725552
H     3.063848    1.443000   -0.766130    0.654926   -0.026810    0.602862
O     2.229903   -0.301888    0.942131    0.000310    0.086386    0.051258
10
* Frequency(7) -339.3600
C     0.007387   -0.058762   -0.041264   -0.000310   -0.071844   -0.042824
C     1.479752    0.119270   -0.020751   -0.000332    0.128820    0.076670
H    -0.507787    0.911121   -0.088336   -0.186150   -0.143652    0.169526
H    -0.379125   -0.599551    0.828437    0.000968   -0.364830   -0.218150
H    -0.268014   -0.628033   -0.937839    0.186462    0.081780   -0.205814
C     2.327273    0.528556   -1.089601    0.000078   -0.075098   -0.044498
H     1.872890    0.592040   -2.213129   -0.654498    0.519326   -0.309534
H     3.208914   -0.373738   -0.133420    0.000104   -1.221022   -0.725552
H     3.114955    1.440907   -0.719086    0.654926   -0.026810    0.602862
O     2.229927   -0.295147    0.946131    0.000310    0.086386    0.051258
10
* Frequency(7) -339.3600
C     0.007373   -0.062087   -0.043246   -0.000310   -0.071844   -0.042824
C     1.479736    0.125232   -0.017203   -0.000332    0.128820    0.076670
H    -0.516403    0.904472   -0.080491   -0.186150   -0.143652    0.169526
H    -0.379081   -0.616436    0.818341    0.000968   -0.364830   -0.218150
H    -0.259384   -0.624248   -0.947365    0.186462    0.081780   -0.205814
C     2.327276    0.525080   -1.091661    0.000078   -0.075098   -0.044498
H     1.842598    0.616075   -2.227455   -0.654498    0.519326   -0.309534
H     3.208919   -0.430249   -0.167000    0.000104   -1.221022   -0.725552
H     3.145266    1.439667   -0.691185    0.654926   -0.026810    0.602862
O     2.229941   -0.291149    0.948503    0.000310    0.086386    0.051258
10
* Frequency(7) -339.3600
C     0.007370   -0.062771   -0.043653   -0.000310   -0.071844   -0.042824
C     1.479733    0.126458   -0.016473   -0.000332    0.128820    0.076670
H    -0.518174    0.903106   -0.078878   -0.186150   -0.143652    0.169526
H    -0.379071   -0.619907    0.816265    0.000968   -0.364830   -0.218150
H    -0.257610   -0.623470   -0.949323    0.186462    0.081780   -0.205814
C     2.327277    0.524365   -1.092084    0.000078   -0.075098   -0.044498
H     1.836371    0.621016   -2.230400   -0.654498    0.519326   -0.309534
H     3.208920   -0.441866   -0.173903    0.000104   -1.221022   -0.725552
H     3.151497    1.439412   -0.685449    0.654926   -0.026810    0.602862
O     2.229944   -0.290327    0.948991    0.000310    0.086386    0.051258
10
* Frequency(7) -339.3600
C     0.007379   -0.060738   -0.042442   -0.000310   -0.071844   -0.042824
C     1.479743    0.122814   -0.018642   -0.000332    0.128820    0.076670
H    -0.512909    0.907169   -0.083672   -0.186150   -0.143652    0.169526
H    -0.379099   -0.609589    0.822435    0.000968   -0.364830   -0.218150
H    -0.262884   -0.625783   -0.943502    0.186462    0.081780   -0.205814
C     2.327275    0.526490   -1.090826    0.000078   -0.075098   -0.044498
H     1.854883    0.606328   -2.221645   -0.654498    0.519326   -0.309534
H     3.208917   -0.407331   -0.153381    0.000104   -1.221022   -0.725552
H     3.132973    1.440170   -0.702500    0.654926   -0.026810    0.602862
O     2.229935   -0.292771    0.947541    0.000310    0.086386    0.051258
10
* Frequency(7) -339.3600
C     0.007398   -0.056211   -0.039743   -0.000310   -0.071844   -0.042824
C     1.479764    0.114697   -0.023473   -0.000332    0.128820    0.076670
H    -0.501178    0.916221   -0.094355   -0.186150   -0.143652    0.169526
H    -0.379160   -0.586598    0.836183    0.000968   -0.364830   -0.218150
H    -0.274634   -0.630936   -0.930532    0.186462    0.081780   -0.205814
C     2.327270    0.531222   -1.088021    0.000078   -0.075098   -0.044498
H     1.896128    0.573601   -2.202139   -0.654498    0.519326   -0.309534
H     3.208911   -0.330385   -0.107659    0.000104   -1.221022   -0.725552
H     3.091702    1.441859   -0.740491    0.654926   -0.026810    0.602862
O     2.229916   -0.298214    0.944311    0.000310    0.086386    0.051258
10
* Frequency(7) -339.3600
C     0.007426   -0.049679   -0.035850   -0.000310   -0.071844   -0.042824
C     1.479794    0.102984   -0.030444   -0.000332    0.128820    0.076670
H    -0.484253    0.929282   -0.109769   -0.186150   -0.143652    0.169526
H    -0.379248   -0.553427    0.856017    0.000968   -0.364830   -0.218150
H    -0.291588   -0.638372   -0.911819    0.186462    0.081780   -0.205814
C     2.327263    0.538050   -1.083976    0.000078   -0.075098   -0.044498
H     1.955636    0.526383   -2.173996   -0.654498    0.519326   -0.309534
H     3.208901   -0.219368   -0.041691    0.000104   -1.221022   -0.725552
H     3.032155    1.444297   -0.795304    0.654926   -0.026810    0.602862
O     2.229888   -0.306069    0.939651    0.000310    0.086386    0.051258
10
* Frequency(7) -339.3600
C     0.007460   -0.041850   -0.031183   -0.000310   -0.071844   -0.042824
C     1.479830    0.088946   -0.038799   -0.000332    0.128820    0.076670
H    -0.463968    0.944936   -0.128243   -0.186150   -0.143652    0.169526
H    -0.379353   -0.513670    0.879790    0.000968   -0.364830   -0.218150
H    -0.311907   -0.647284   -0.889391    0.186462    0.081780   -0.205814
C     2.327254    0.546234   -1.079126    0.000078   -0.075098   -0.044498
H     2.026959    0.469790   -2.140265   -0.654498    0.519326   -0.309534
H     3.208890   -0.086309    0.037375    0.000104   -1.221022   -0.725552
H     2.960785    1.447219   -0.861000    0.654926   -0.026810    0.602862
O     2.229854   -0.315482    0.934065    0.000310    0.086386    0.051258
10
* Frequency(7) -339.3600
C     0.007496   -0.033572   -0.026249   -0.000310   -0.071844   -0.042824
C     1.479868    0.074104   -0.047633   -0.000332    0.128820    0.076670
H    -0.442520    0.961488   -0.147775   -0.186150   -0.143652    0.169526
H    -0.379465   -0.471636    0.904924    0.000968   -0.364830   -0.218150
H    -0.333391   -0.656706   -0.865677    0.186462    0.081780   -0.205814
C     2.327246    0.554886   -1.074000    0.000078   -0.075098   -0.044498
H     2.102367    0.409956   -2.104601   -0.654498    0.519326   -0.309534
H     3.208878    0.054373    0.120971    0.000104   -1.221022   -0.725552
H     2.885327    1.450307   -0.930460    0.654926   -0.026810    0.602862
O     2.229818   -0.325436    0.928159    0.000310    0.086386    0.051258
10
* Frequency(7) -339.3600
C     0.007530   -0.025743   -0.021582   -0.000310   -0.071844   -0.042824
C     1.479904    0.060066   -0.055988   -0.000332    0.128820    0.076670
H    -0.422235    0.977142   -0.166249   -0.186150   -0.143652    0.169526
H    -0.379570   -0.431879    0.928697    0.000968   -0.364830   -0.218150
H    -0.353710   -0.665618   -0.843249    0.186462    0.081780   -0.205814
C     2.327237    0.563070   -1.069150    0.000078   -0.075098   -0.044498
H     2.173690    0.353363   -2.070870   -0.654498    0.519326   -0.309534
H     3.208867    0.187432    0.200037    0.000104   -1.221022   -0.725552
H     2.813957    1.453229   -0.996156    0.654926   -0.026810    0.602862
O     2.229784   -0.334849    0.922573    0.000310    0.086386    0.051258
10
* Frequency(7) -339.3600
C     0.007558   -0.019211   -0.017689   -0.000310   -0.071844   -0.042824
C     1.479934    0.048353   -0.062959   -0.000332    0.128820    0.076670
H    -0.405310    0.990203   -0.181663   -0.186150   -0.143652    0.169526
H    -0.379658   -0.398708    0.948531    0.000968   -0.364830   -0.218150
H    -0.370664   -0.673054   -0.824536    0.186462    0.081780   -0.205814
C     2.327230    0.569898   -1.065105    0.000078   -0.075098   -0.044498
H     2.233198    0.306145   -2.042727   -0.654498    0.519326   -0.309534
H     3.208857    0.298449    0.266005    0.000104   -1.221022   -0.725552
H     2.754410    1.455667   -1.050969    0.654926   -0.026810    0.602862
O     2.229756   -0.342704    0.917913    0.000310    0.086386    0.051258
10
* Frequency(7) -339.3600
C     0.007577   -0.014684   -0.014990   -0.000310   -0.071844   -0.042824
C     1.479955    0.040236   -0.067790   -0.000332    0.128820    0.076670
H    -0.393579    0.999255   -0.192346   -0.186150   -0.143652    0.169526
H    -0.379719   -0.375717    0.962279    0.000968   -0.364830   -0.218150
H    -0.382414   -0.678207   -0.811566    0.186462    0.081780   -0.205814
C     2.327225    0.574630   -1.062300    0.000078   -0.075098   -0.044498
H     2.274443    0.273418   -2.023221   -0.654498    0.519326   -0.309534
H     3.208851    0.375395    0.311727    0.000104   -1.221022   -0.725552
H     2.713139    1.457356   -1.088960    0.654926   -0.026810    0.602862
O     2.229737   -0.348147    0.914683    0.000310    0.086386    0.051258
10
* Frequency(7) -339.3600
C     0.007586   -0.012651   -0.013779   -0.000310   -0.071844   -0.042824
C     1.479965    0.036592   -0.069959   -0.000332    0.128820    0.076670
H    -0.388314    1.003318   -0.197140   -0.186150   -0.143652    0.169526
H    -0.379747   -0.365399    0.968449    0.000968   -0.364830   -0.218150
H    -0.387688   -0.680520   -0.805745    0.186462    0.081780   -0.205814
C     2.327223    0.576755   -1.061042    0.000078   -0.075098   -0.044498
H     2.292955    0.258730   -2.014466   -0.654498    0.519326   -0.309534
H     3.208848    0.409930    0.332249    0.000104   -1.221022   -0.725552
H     2.694615    1.458114   -1.106011    0.654926   -0.026810    0.602862
O     2.229728   -0.350591    0.913233    0.000310    0.086386    0.051258
10
* Frequency(7) -339.3600
C     0.007583   -0.013335   -0.014186   -0.000310   -0.071844   -0.042824
C     1.479962    0.037818   -0.069229   -0.000332    0.128820    0.076670
H    -0.390085    1.001952   -0.195527   -0.186150   -0.143652    0.169526
H    -0.379737   -0.368870    0.966373    0.000968   -0.364830   -0.218150
H    -0.385914   -0.679742   -0.807703    0.186462    0.081780   -0.205814
C     2.327224    0.576040   -1.061465    0.000078   -0.075098   -0.044498
H     2.286728    0.263671   -2.017411   -0.654498    0.519326   -0.309534
H     3.208849    0.398313    0.325346    0.000104   -1.221022   -0.725552
H     2.700846    1.457859   -1.100275    0.654926   -0.026810    0.602862
O     2.229731   -0.349769    0.913721    0.000310    0.086386    0.051258
10
* Frequency(7) -339.3600
C     0.007569   -0.016660   -0.016168   -0.000310   -0.071844   -0.042824
C     1.479946    0.043780   -0.065681   -0.000332    0.128820    0.076670
H    -0.398701    0.995303   -0.187682   -0.186150   -0.143652    0.169526
H    -0.379693   -0.385755    0.956277    0.000968   -0.364830   -0.218150
H    -0.377284   -0.675957   -0.817229    0.186462    0.081780   -0.205814
C     2.327227    0.572564   -1.063525    0.000078   -0.075098   -0.044498
H     2.256436    0.287706   -2.031737   -0.654498    0.519326   -0.309534
H     3.208854    0.341802    0.291766    0.000104   -1.221022   -0.725552
H     2.731157    1.456619   -1.072374    0.654926   -0.026810    0.602862
O     2.229745   -0.345771    0.916093    0.000310    0.086386    0.051258
10
* Frequency(7) -339.3600
C     0.007545   -0.022266   -0.019510   -0.000310   -0.071844   -0.042824
C     1.479920    0.053832   -0.059698   -0.000332    0.128820    0.076670
H    -0.413227    0.984094   -0.174453   -0.186150   -0.143652    0.169526
H    -0.379617   -0.414224    0.939254    0.000968   -0.364830   -0.218150
H    -0.362734   -0.669576   -0.833289    0.186462    0.081780   -0.205814
C     2.327233    0.566704   -1.066997    0.000078   -0.075098   -0.044498
H     2.205363    0.328231   -2.055891   -0.654498    0.519326   -0.309534
H     3.208862    0.246521    0.235148    0.000104   -1.221022   -0.725552
H     2.782264    1.454526   -1.025330    0.654926   -0.026810    0.602862
O     2.229769   -0.339030    0.920093    0.000310    0.086386    0.051258
10
* Frequency(7) -339.3600
C     0.007513   -0.029546   -0.023849   -0.000310   -0.071844   -0.042824
C     1.479887    0.066885   -0.051929   -0.000332    0.128820    0.076670
H    -0.432089    0.969537   -0.157275   -0.186150   -0.143652    0.169526
H    -0.379519   -0.451192    0.917149    0.000968   -0.364830   -0.218150
H    -0.343839   -0.661289   -0.854144    0.186462    0.081780   -0.205814
C     2.327241    0.559094   -1.071506    0.000078   -0.075098   -0.044498
H     2.139043    0.380854   -2.087256   -0.654498    0.519326   -0.309534
H     3.208872    0.122795    0.161628    0.000104   -1.221022   -0.725552
H     2.848627    1.451810   -0.964242    0.654926   -0.026810    0.602862
O     2.229801   -0.330276    0.925287    0.000310    0.086386    0.051258
10
* Frequency(7) -339.3600
C     0.007478   -0.037711   -0.028716   -0.000310   -0.071844   -0.042824
C     1.479849    0.081525   -0.043216   -0.000332    0.128820    0.076670
H    -0.453244    0.953212   -0.138009   -0.186150   -0.143652    0.169526
H    -0.379409   -0.492653    0.892357    0.000968   -0.364830   -0.218150
H    -0.322649   -0.651995   -0.877534    0.186462    0.081780   -0.205814
C     2.327250    0.550560   -1.076563    0.000078   -0.075098   -0.044498
H     2.064663    0.439873   -2.122433   -0.654498    0.519326   -0.309534
H     3.208884   -0.015968    0.079173    0.000104   -1.221022   -0.725552
H     2.923056    1.448763   -0.895730    0.654926   -0.026810    0.602862
O     2.229836   -0.320459    0.931112    0.000310    0.086386    0.051258
