10
* (null), Energy   -1000.0000000
C     0.007478   -0.037711   -0.028716    0.000464    0.006784   -0.011476
C     1.479849    0.081525   -0.043216    0.039110   -0.034164    0.057492
H    -0.453244    0.953212   -0.138009   -0.002348    0.002410   -0.003700
H    -0.379409   -0.492653    0.892357    0.003416    0.005624   -0.009734
H    -0.322649   -0.651995   -0.877534   -0.001980    0.001942   -0.004010
C     2.327250    0.550560   -1.076563    0.034408   -0.007414    0.012540
H     2.064663    0.439873   -2.122433    0.014156   -0.017638    0.018710
H     3.208884   -0.015968    0.079173    0.489932    0.987568   -1.662130
H     2.923056    1.448763   -0.895730    0.013868   -0.008186    0.025004
O     2.229836   -0.320459    0.931112   -0.088116   -0.035100    0.059106
10
* Frequency(6) -1822.7600
C     0.007531   -0.036940   -0.030020    0.000464    0.006784   -0.011476
C     1.484294    0.077642   -0.036682    0.039110   -0.034164    0.057492
H    -0.453511    0.953486   -0.138429   -0.002348    0.002410   -0.003700
H    -0.379021   -0.492014    0.891251    0.003416    0.005624   -0.009734
H    -0.322874   -0.651774   -0.877990   -0.001980    0.001942   -0.004010
C     2.331160    0.549717   -1.075138    0.034408   -0.007414    0.012540
H     2.066272    0.437869   -2.120307    0.014156   -0.017638    0.018710
H     3.264562    0.096264   -0.109719    0.489932    0.987568   -1.662130
H     2.924632    1.447833   -0.892888    0.013868   -0.008186    0.025004
O     2.219822   -0.324448    0.937829   -0.088116   -0.035100    0.059106
10
* Frequency(6) -1822.7600
C     0.007578   -0.036253   -0.031183    0.000464    0.006784   -0.011476
C     1.488257    0.074181   -0.030857    0.039110   -0.034164    0.057492
H    -0.453749    0.953730   -0.138804   -0.002348    0.002410   -0.003700
H    -0.378675   -0.491444    0.890264    0.003416    0.005624   -0.009734
H    -0.323075   -0.651578   -0.878396   -0.001980    0.001942   -0.004010
C     2.334647    0.548966   -1.073867    0.034408   -0.007414    0.012540
H     2.067706    0.436081   -2.118411    0.014156   -0.017638    0.018710
H     3.314207    0.196334   -0.278142    0.489932    0.987568   -1.662130
H     2.926037    1.447003   -0.890355    0.013868   -0.008186    0.025004
O     2.210893   -0.328005    0.943818   -0.088116   -0.035100    0.059106
10
* Frequency(6) -1822.7600
C     0.007614   -0.035723   -0.032079    0.000464    0.006784   -0.011476
C     1.491309    0.071515   -0.026370    0.039110   -0.034164    0.057492
H    -0.453932    0.953918   -0.139093   -0.002348    0.002410   -0.003700
H    -0.378408   -0.491005    0.889505    0.003416    0.005624   -0.009734
H    -0.323229   -0.651426   -0.878709   -0.001980    0.001942   -0.004010
C     2.337332    0.548388   -1.072889    0.034408   -0.007414    0.012540
H     2.068811    0.434705   -2.116951    0.014156   -0.017638    0.018710
H     3.352438    0.273398   -0.407845    0.489932    0.987568   -1.662130
H     2.927119    1.446364   -0.888404    0.013868   -0.008186    0.025004
O     2.204017   -0.330744    0.948431   -0.088116   -0.035100    0.059106
10
* Frequency(6) -1822.7600
C     0.007635   -0.035409   -0.032610    0.000464    0.006784   -0.011476
C     1.493119    0.069933   -0.023710    0.039110   -0.034164    0.057492
H    -0.454041    0.954030   -0.139264   -0.002348    0.002410   -0.003700
H    -0.378250   -0.490745    0.889054    0.003416    0.005624   -0.009734
H    -0.323321   -0.651336   -0.878895   -0.001980    0.001942   -0.004010
C     2.338924    0.548045   -1.072308    0.034408   -0.007414    0.012540
H     2.069466    0.433889   -2.116085    0.014156   -0.017638    0.018710
H     3.375113    0.319104   -0.484771    0.489932    0.987568   -1.662130
H     2.927761    1.445986   -0.887246    0.013868   -0.008186    0.025004
O     2.199939   -0.332368    0.951166   -0.088116   -0.035100    0.059106
10
* Frequency(6) -1822.7600
C     0.007640   -0.035345   -0.032719    0.000464    0.006784   -0.011476
C     1.493491    0.069608   -0.023163    0.039110   -0.034164    0.057492
H    -0.454063    0.954053   -0.139300   -0.002348    0.002410   -0.003700
H    -0.378217   -0.490691    0.888962    0.003416    0.005624   -0.009734
H    -0.323340   -0.651318   -0.878933   -0.001980    0.001942   -0.004010
C     2.339252    0.547974   -1.072189    0.034408   -0.007414    0.012540
H     2.069601    0.433721   -2.115907    0.014156   -0.017638    0.018710
H     3.379775    0.328500   -0.500586    0.489932    0.987568   -1.662130
H     2.927893    1.445908   -0.887008    0.013868   -0.008186    0.025004
O     2.199101   -0.332702    0.951728   -0.088116   -0.035100    0.059106
10
* Frequency(6) -1822.7600
C     0.007627   -0.035537   -0.032394    0.000464    0.006784   -0.011476
C     1.492385    0.070575   -0.024789    0.039110   -0.034164    0.057492
H    -0.453997    0.953984   -0.139195   -0.002348    0.002410   -0.003700
H    -0.378314   -0.490850    0.889237    0.003416    0.005624   -0.009734
H    -0.323284   -0.651373   -0.878819   -0.001980    0.001942   -0.004010
C     2.338278    0.548184   -1.072544    0.034408   -0.007414    0.012540
H     2.069200    0.434220   -2.116436    0.014156   -0.017638    0.018710
H     3.365917    0.300568   -0.453574    0.489932    0.987568   -1.662130
H     2.927501    1.446139   -0.887716    0.013868   -0.008186    0.025004
O     2.201593   -0.331709    0.950057   -0.088116   -0.035100    0.059106
10
* Frequency(6) -1822.7600
C     0.007597   -0.035964   -0.031671    0.000464    0.006784   -0.011476
C     1.489920    0.072728   -0.028412    0.039110   -0.034164    0.057492
H    -0.453849    0.953833   -0.138962   -0.002348    0.002410   -0.003700
H    -0.378529   -0.491205    0.889850    0.003416    0.005624   -0.009734
H    -0.323159   -0.651495   -0.878567   -0.001980    0.001942   -0.004010
C     2.336110    0.548651   -1.073334    0.034408   -0.007414    0.012540
H     2.068308    0.435331   -2.117615    0.014156   -0.017638    0.018710
H     3.335043    0.238334   -0.348831    0.489932    0.987568   -1.662130
H     2.926627    1.446655   -0.889291    0.013868   -0.008186    0.025004
O     2.207146   -0.329497    0.946332   -0.088116   -0.035100    0.059106
10
* Frequency(6) -1822.7600
C     0.007555   -0.036581   -0.030628    0.000464    0.006784   -0.011476
C     1.486364    0.075834   -0.033639    0.039110   -0.034164    0.057492
H    -0.453635    0.953613   -0.138625   -0.002348    0.002410   -0.003700
H    -0.378840   -0.491716    0.890735    0.003416    0.005624   -0.009734
H    -0.322979   -0.651671   -0.878202   -0.001980    0.001942   -0.004010
C     2.332982    0.549325   -1.074474    0.034408   -0.007414    0.012540
H     2.067021    0.436935   -2.119316    0.014156   -0.017638    0.018710
H     3.290498    0.148543   -0.197707    0.489932    0.987568   -1.662130
H     2.925366    1.447399   -0.891565    0.013868   -0.008186    0.025004
O     2.215157   -0.326306    0.940958   -0.088116   -0.035100    0.059106
10
* Frequency(6) -1822.7600
C     0.007505   -0.037320   -0.029377    0.000464    0.006784   -0.011476
C     1.482102    0.079557   -0.039904    0.039110   -0.034164    0.057492
H    -0.453379    0.953351   -0.138222   -0.002348    0.002410   -0.003700
H    -0.379212   -0.492329    0.891796    0.003416    0.005624   -0.009734
H    -0.322763   -0.651883   -0.877765   -0.001980    0.001942   -0.004010
C     2.329232    0.550133   -1.075841    0.034408   -0.007414    0.012540
H     2.065479    0.438857   -2.121355    0.014156   -0.017638    0.018710
H     3.237108    0.040924   -0.016579    0.489932    0.987568   -1.662130
H     2.923855    1.448291   -0.894290    0.013868   -0.008186    0.025004
O     2.224760   -0.322481    0.934517   -0.088116   -0.035100    0.059106
10
* Frequency(6) -1822.7600
C     0.007451   -0.038102   -0.028055    0.000464    0.006784   -0.011476
C     1.477596    0.083493   -0.046528    0.039110   -0.034164    0.057492
H    -0.453109    0.953073   -0.137796   -0.002348    0.002410   -0.003700
H    -0.379606   -0.492977    0.892918    0.003416    0.005624   -0.009734
H    -0.322535   -0.652107   -0.877303   -0.001980    0.001942   -0.004010
C     2.325268    0.550987   -1.077285    0.034408   -0.007414    0.012540
H     2.063847    0.440889   -2.123511    0.014156   -0.017638    0.018710
H     3.180660   -0.072860    0.174925    0.489932    0.987568   -1.662130
H     2.922257    1.449235   -0.897170    0.013868   -0.008186    0.025004
O     2.234912   -0.318437    0.927707   -0.088116   -0.035100    0.059106
10
* Frequency(6) -1822.7600
C     0.007401   -0.038841   -0.026804    0.000464    0.006784   -0.011476
C     1.473334    0.087216   -0.052793    0.039110   -0.034164    0.057492
H    -0.452853    0.952811   -0.137393   -0.002348    0.002410   -0.003700
H    -0.379978   -0.493590    0.893979    0.003416    0.005624   -0.009734
H    -0.322319   -0.652319   -0.876866   -0.001980    0.001942   -0.004010
C     2.321518    0.551795   -1.078652    0.034408   -0.007414    0.012540
H     2.062305    0.442811   -2.125550    0.014156   -0.017638    0.018710
H     3.127270   -0.180479    0.356053    0.489932    0.987568   -1.662130
H     2.920746    1.450127   -0.899895    0.013868   -0.008186    0.025004
O     2.244515   -0.314612    0.921266   -0.088116   -0.035100    0.059106
10
* Frequency(6) -1822.7600
C     0.007359   -0.039458   -0.025761    0.000464    0.006784   -0.011476
C     1.469778    0.090322   -0.058020    0.039110   -0.034164    0.057492
H    -0.452639    0.952591   -0.137056   -0.002348    0.002410   -0.003700
H    -0.380289   -0.494101    0.894864    0.003416    0.005624   -0.009734
H    -0.322139   -0.652495   -0.876501   -0.001980    0.001942   -0.004010
C     2.318390    0.552469   -1.079792    0.034408   -0.007414    0.012540
H     2.061018    0.444415   -2.127251    0.014156   -0.017638    0.018710
H     3.082725   -0.270270    0.507177    0.489932    0.987568   -1.662130
H     2.919485    1.450871   -0.902169    0.013868   -0.008186    0.025004
O     2.252526   -0.311421    0.915892   -0.088116   -0.035100    0.059106
10
* Frequency(6) -1822.7600
C     0.007329   -0.039885   -0.025038    0.000464    0.006784   -0.011476
C     1.467313    0.092475   -0.061643    0.039110   -0.034164    0.057492
H    -0.452491    0.952440   -0.136823   -0.002348    0.002410   -0.003700
H    -0.380504   -0.494456    0.895477    0.003416    0.005624   -0.009734
H    -0.322014   -0.652617   -0.876249   -0.001980    0.001942   -0.004010
C     2.316222    0.552936   -1.080582    0.034408   -0.007414    0.012540
H     2.060126    0.445526   -2.128430    0.014156   -0.017638    0.018710
H     3.051851   -0.332504    0.611920    0.489932    0.987568   -1.662130
H     2.918611    1.451387   -0.903744    0.013868   -0.008186    0.025004
O     2.258079   -0.309209    0.912167   -0.088116   -0.035100    0.059106
10
* Frequency(6) -1822.7600
C     0.007316   -0.040077   -0.024713    0.000464    0.006784   -0.011476
C     1.466207    0.093442   -0.063269    0.039110   -0.034164    0.057492
H    -0.452425    0.952371   -0.136718   -0.002348    0.002410   -0.003700
H    -0.380601   -0.494615    0.895752    0.003416    0.005624   -0.009734
H    -0.321958   -0.652672   -0.876135   -0.001980    0.001942   -0.004010
C     2.315248    0.553146   -1.080937    0.034408   -0.007414    0.012540
H     2.059725    0.446025   -2.128959    0.014156   -0.017638    0.018710
H     3.037993   -0.360436    0.658932    0.489932    0.987568   -1.662130
H     2.918219    1.451618   -0.904452    0.013868   -0.008186    0.025004
O     2.260571   -0.308216    0.910496   -0.088116   -0.035100    0.059106
10
* Frequency(6) -1822.7600
C     0.007321   -0.040013   -0.024822    0.000464    0.006784   -0.011476
C     1.466579    0.093117   -0.062722    0.039110   -0.034164    0.057492
H    -0.452447    0.952394   -0.136754   -0.002348    0.002410   -0.003700
H    -0.380568   -0.494561    0.895660    0.003416    0.005624   -0.009734
H    -0.321977   -0.652654   -0.876173   -0.001980    0.001942   -0.004010
C     2.315576    0.553075   -1.080818    0.034408   -0.007414    0.012540
H     2.059860    0.445857   -2.128781    0.014156   -0.017638    0.018710
H     3.042655   -0.351040    0.643117    0.489932    0.987568   -1.662130
H     2.918351    1.451540   -0.904214    0.013868   -0.008186    0.025004
O     2.259733   -0.308550    0.911058   -0.088116   -0.035100    0.059106
10
* Frequency(6) -1822.7600
C     0.007342   -0.039699   -0.025353    0.000464    0.006784   -0.011476
C     1.468389    0.091535   -0.060062    0.039110   -0.034164    0.057492
H    -0.452556    0.952506   -0.136925   -0.002348    0.002410   -0.003700
H    -0.380410   -0.494301    0.895209    0.003416    0.005624   -0.009734
H    -0.322069   -0.652564   -0.876359   -0.001980    0.001942   -0.004010
C     2.317168    0.552732   -1.080237    0.034408   -0.007414    0.012540
H     2.060515    0.445041   -2.127915    0.014156   -0.017638    0.018710
H     3.065330   -0.305334    0.566191    0.489932    0.987568   -1.662130
H     2.918993    1.451162   -0.903056    0.013868   -0.008186    0.025004
O     2.255655   -0.310174    0.913793   -0.088116   -0.035100    0.059106
10
* Frequency(6) -1822.7600
C     0.007378   -0.039169   -0.026249    0.000464    0.006784   -0.011476
C     1.471441    0.088869   -0.055575    0.039110   -0.034164    0.057492
H    -0.452739    0.952694   -0.137214   -0.002348    0.002410   -0.003700
H    -0.380143   -0.493862    0.894450    0.003416    0.005624   -0.009734
H    -0.322223   -0.652412   -0.876672   -0.001980    0.001942   -0.004010
C     2.319853    0.552154   -1.079259    0.034408   -0.007414    0.012540
H     2.061620    0.443665   -2.126455    0.014156   -0.017638    0.018710
H     3.103561   -0.228270    0.436488    0.489932    0.987568   -1.662130
H     2.920075    1.450523   -0.901105    0.013868   -0.008186    0.025004
O     2.248779   -0.312913    0.918406   -0.088116   -0.035100    0.059106
10
* Frequency(6) -1822.7600
C     0.007425   -0.038482   -0.027412    0.000464    0.006784   -0.011476
C     1.475404    0.085408   -0.049750    0.039110   -0.034164    0.057492
H    -0.452977    0.952938   -0.137589   -0.002348    0.002410   -0.003700
H    -0.379797   -0.493292    0.893463    0.003416    0.005624   -0.009734
H    -0.322424   -0.652216   -0.877078   -0.001980    0.001942   -0.004010
C     2.323340    0.551403   -1.077988    0.034408   -0.007414    0.012540
H     2.063054    0.441877   -2.124559    0.014156   -0.017638    0.018710
H     3.153206   -0.128200    0.268065    0.489932    0.987568   -1.662130
H     2.921480    1.449693   -0.898572    0.013868   -0.008186    0.025004
O     2.239850   -0.316470    0.924395   -0.088116   -0.035100    0.059106
10
* Frequency(6) -1822.7600
C     0.007478   -0.037711   -0.028716    0.000464    0.006784   -0.011476
C     1.479849    0.081525   -0.043216    0.039110   -0.034164    0.057492
H    -0.453244    0.953212   -0.138009   -0.002348    0.002410   -0.003700
H    -0.379409   -0.492653    0.892357    0.003416    0.005624   -0.009734
H    -0.322649   -0.651995   -0.877534   -0.001980    0.001942   -0.004010
C     2.327250    0.550560   -1.076563    0.034408   -0.007414    0.012540
H     2.064663    0.439873   -2.122433    0.014156   -0.017638    0.018710
H     3.208884   -0.015968    0.079173    0.489932    0.987568   -1.662130
H     2.923056    1.448763   -0.895730    0.013868   -0.008186    0.025004
O     2.229836   -0.320459    0.931112   -0.088116   -0.035100    0.059106
