10
Coordinates from ORCA-job Keto_enol_ts E -27.169177236202
  C       0.001313      0.000005     -0.000046
  C       1.475999      0.008294     -0.013976
  H      -0.375968      1.031458      0.002341
  H      -0.420180     -0.519965      0.869851
  H      -0.376142     -0.490251     -0.907448
  C       2.450839      0.585187     -0.981837
  H       2.467266      0.142612     -1.977631
  H       3.142212      0.018241     -0.030621
  H       2.467304      1.671658     -1.066026
  O       2.253070     -0.492092      0.825833
10
Coordinates from ORCA-job Keto_enol_ts E -27.156351436039
  C      -0.003388      0.001745     -0.003329
  C       1.469658      0.041123     -0.069602
  H      -0.410372      1.020436      0.024509
  H      -0.363265     -0.531918      0.888479
  H      -0.411761     -0.503237     -0.887844
  C       2.472238      0.594293     -0.997709
  H       2.488360      0.159891     -1.999512
  H       3.143280     -0.038983      0.066097
  H       2.488171      1.682478     -1.092149
  O       2.212791     -0.470682      0.791500
10
Coordinates from ORCA-job Keto_enol_ts E -27.150579126730
  C       0.015094      0.002595     -0.004648
  C       1.487459      0.035391     -0.058989
  H      -0.376253      1.029184      0.009587
  H      -0.382452     -0.524410      0.872981
  H      -0.376660     -0.491842     -0.904139
  C       2.442076      0.604212     -1.014908
  H       2.436891      0.173225     -2.018190
  H       3.142387     -0.087356      0.147936
  H       2.437170      1.691751     -1.114195
  O       2.260002     -0.477602      0.805005
10
Coordinates from ORCA-job Keto_enol_ts E -27.150419852386
  C       0.022697      0.003905     -0.006930
  C       1.492494      0.047232     -0.080935
  H      -0.374001      1.028575      0.008157
  H      -0.361066     -0.524959      0.875627
  H      -0.376409     -0.490024     -0.903596
  C       2.419752      0.616055     -1.034343
  H       2.426900      0.179702     -2.033342
  H       3.155612     -0.127755      0.220942
  H       2.424509      1.702111     -1.128067
  O       2.255224     -0.479695      0.802927
10
Coordinates from ORCA-job Keto_enol_ts E -27.150114697655
  C       0.023268      0.005269     -0.005378
  C       1.493481      0.070636     -0.069175
  H      -0.396717      1.019410      0.021652
  H      -0.360689     -0.551107      0.859820
  H      -0.352960     -0.481675     -0.916945
  C       2.412192      0.608346     -1.043311
  H       2.397510      0.180124     -2.043212
  H       3.155213     -0.167835      0.202504
  H       2.457806      1.694798     -1.121454
  O       2.256609     -0.422818      0.835937
10
Coordinates from ORCA-job Keto_enol_ts E -27.151122272883
  C       0.022356     -0.001059     -0.008704
  C       1.492530      0.076232     -0.066752
  H      -0.396723      1.011550      0.073408
  H      -0.360064     -0.597850      0.829694
  H      -0.356837     -0.437761     -0.943052
  C       2.406059      0.580518     -1.061134
  H       2.366047      0.164828     -2.065466
  H       3.157258     -0.125792      0.221516
  H       2.499844      1.663844     -1.118625
  O       2.255244     -0.379363      0.859554
10
Coordinates from ORCA-job Keto_enol_ts E -27.152403008769
  C       0.018552     -0.008559     -0.013646
  C       1.489840      0.066082     -0.054134
  H      -0.399899      1.005689      0.047879
  H      -0.372866     -0.590192      0.831085
  H      -0.352662     -0.461033     -0.943573
  C       2.403999      0.559153     -1.058720
  H       2.299275      0.194539     -2.077859
  H       3.170411     -0.079718      0.183231
  H       2.575569      1.634373     -1.073935
  O       2.253494     -0.365187      0.880112
10
Coordinates from ORCA-job Keto_enol_ts E -27.153780038277
  C       0.017080     -0.015449     -0.019275
  C       1.489108      0.063204     -0.045829
  H      -0.406784      0.997771      0.010595
  H      -0.378677     -0.575238      0.838019
  H      -0.343693     -0.496343     -0.938964
  C       2.394584      0.542883     -1.059144
  H       2.225273      0.241697     -2.089541
  H       3.182413     -0.051835      0.154801
  H       2.656602      1.599825     -1.031018
  O       2.249806     -0.351368      0.900795
10
Coordinates from ORCA-job Keto_enol_ts E -27.154753103088
  C       0.015031     -0.022795     -0.023480
  C       1.487156      0.068657     -0.046971
  H      -0.418714      0.986578     -0.018209
  H      -0.377158     -0.565790      0.846131
  H      -0.339173     -0.529025     -0.932029
  C       2.373742      0.535262     -1.069267
  H       2.165392      0.287784     -2.105448
  H       3.190629     -0.033463      0.141940
  H       2.743307      1.555776     -0.987192
  O       2.245500     -0.327836      0.914965
10
Coordinates from ORCA-job Keto_enol_ts E -27.155616954392
  C       0.010944     -0.029413     -0.026302
  C       1.482760      0.074386     -0.044121
  H      -0.433520      0.975135     -0.037072
  H      -0.376755     -0.562411      0.851462
  H      -0.335463     -0.554225     -0.927018
  C       2.356148      0.526477     -1.076710
  H       2.121125      0.331120     -2.117088
  H       3.193546     -0.002325      0.113853
  H       2.827570      1.499218     -0.946633
  O       2.239358     -0.302816      0.930069
10
Coordinates from ORCA-job Keto_enol_ts E -27.155959890952
  C       0.007831     -0.036028     -0.028506
  C       1.479487      0.085325     -0.041668
  H      -0.451290      0.960770     -0.074672
  H      -0.377011     -0.545495      0.864367
  H      -0.326084     -0.595711     -0.912808
  C       2.333337      0.532012     -1.081702
  H       2.074225      0.391165     -2.124129
  H       3.202109      0.008679      0.090155
  H       2.910904      1.440621     -0.911913
  O       2.232205     -0.286190      0.941315
10
Coordinates from ORCA-job Keto_enol_ts E -27.156024977815
  C       0.007469     -0.037325     -0.028752
  C       1.479658      0.084732     -0.041340
  H      -0.453962      0.956022     -0.110371
  H      -0.378575     -0.517107      0.879998
  H      -0.322942     -0.628226     -0.893858
  C       2.327662      0.543838     -1.078524
  H       2.066482      0.421143     -2.123405
  H       3.208643     -0.007776      0.084712
  H       2.922581      1.444440     -0.906840
  O       2.228698     -0.304595      0.938820
10
Coordinates from ORCA-job Keto_enol_ts E -27.156026015014
  C       0.007513     -0.037732     -0.028643
  C       1.479886      0.081057     -0.043493
  H      -0.452782      0.953251     -0.139281
  H      -0.379510     -0.491264      0.893072
  H      -0.322850     -0.653003     -0.876652
  C       2.327422      0.550772     -1.076575
  H       2.065186      0.440349     -2.122559
  H       3.208835     -0.016414      0.079120
  H       2.922002      1.449654     -0.894981
  O       2.230012     -0.321522      0.930432
10
Coordinates from ORCA-job Keto_enol_ts E -27.156026072413
  C       0.007478     -0.037711     -0.028716
  C       1.479849      0.081525     -0.043216
  H      -0.453244      0.953212     -0.138009
  H      -0.379409     -0.492653      0.892357
  H      -0.322649     -0.651995     -0.877534
  C       2.327250      0.550560     -1.076563
  H       2.064663      0.439873     -2.122433
  H       3.208884     -0.015968      0.079173
  H       2.923056      1.448763     -0.895730
  O       2.229836     -0.320459      0.931112
