!PM3 OptTS NumFreq 


%geom
	Calc_hess true
	NumHess true
	Recalc_Hess 5
end

*xyz 0 1
	C        0.001313000      0.000005000     -0.000046000
	C        1.475999000      0.008294000     -0.013976000
	H       -0.375968000      1.031458000      0.002341000
	H       -0.420180000     -0.519965000      0.869851000
	H       -0.376142000     -0.490251000     -0.907448000
	C        2.450839000      0.585187000     -0.981837000
	H        2.467266000      0.142612000     -1.977631000
	H        3.142212000      0.018241000     -0.030621000
	H        2.467304000      1.671658000     -1.066026000
	O        2.253070000     -0.492092000      0.825833000

*