3
* (null), Energy   -1000.0000000
O     0.000000    0.000000    0.000000    0.026840   -0.123834   -0.000000
H     0.969000    0.000000    0.000000    0.040130    0.025290    0.000000
H    -0.362324    1.455583    0.000000   -0.466122    1.940212    0.000000
3
* Frequency(6) -1069.7500
O     0.003050   -0.014073    0.000000    0.026840   -0.123834   -0.000000
H     0.973561    0.002874    0.000000    0.040130    0.025290    0.000000
H    -0.415296    1.676078    0.000000   -0.466122    1.940212    0.000000
3
* Frequency(6) -1069.7500
O     0.005770   -0.026621    0.000000    0.026840   -0.123834   -0.000000
H     0.977627    0.005437    0.000000    0.040130    0.025290    0.000000
H    -0.462528    1.872679    0.000000   -0.466122    1.940212    0.000000
3
* Frequency(6) -1069.7500
O     0.007864   -0.036284    0.000000    0.026840   -0.123834   -0.000000
H     0.980758    0.007410    0.000000    0.040130    0.025290    0.000000
H    -0.498902    2.024081    0.000000   -0.466122    1.940212    0.000000
3
* Frequency(6) -1069.7500
O     0.009107   -0.042016    0.000000    0.026840   -0.123834   -0.000000
H     0.982616    0.008581    0.000000    0.040130    0.025290    0.000000
H    -0.520475    2.113878    0.000000   -0.466122    1.940212    0.000000
3
* Frequency(6) -1069.7500
O     0.009362   -0.043194    0.000000    0.026840   -0.123834   -0.000000
H     0.982998    0.008821    0.000000    0.040130    0.025290    0.000000
H    -0.524909    2.132338    0.000000   -0.466122    1.940212    0.000000
3
* Frequency(6) -1069.7500
O     0.008603   -0.039691    0.000000    0.026840   -0.123834   -0.000000
H     0.981862    0.008106    0.000000    0.040130    0.025290    0.000000
H    -0.511726    2.077461    0.000000   -0.466122    1.940212    0.000000
3
* Frequency(6) -1069.7500
O     0.006911   -0.031888    0.000000    0.026840   -0.123834   -0.000000
H     0.979334    0.006512    0.000000    0.040130    0.025290    0.000000
H    -0.482352    1.955194    0.000000   -0.466122    1.940212    0.000000
3
* Frequency(6) -1069.7500
O     0.004471   -0.020628    0.000000    0.026840   -0.123834   -0.000000
H     0.975685    0.004213    0.000000    0.040130    0.025290    0.000000
H    -0.439971    1.778787    0.000000   -0.466122    1.940212    0.000000
3
* Frequency(6) -1069.7500
O     0.001546   -0.007134    0.000000    0.026840   -0.123834   -0.000000
H     0.971312    0.001457    0.000000    0.040130    0.025290    0.000000
H    -0.389176    1.567355    0.000000   -0.466122    1.940212    0.000000
3
* Frequency(6) -1069.7500
O    -0.001546    0.007134    0.000000    0.026840   -0.123834   -0.000000
H     0.966688   -0.001457    0.000000    0.040130    0.025290    0.000000
H    -0.335472    1.343811    0.000000   -0.466122    1.940212    0.000000
3
* Frequency(6) -1069.7500
O    -0.004471    0.020628    0.000000    0.026840   -0.123834   -0.000000
H     0.962315   -0.004213    0.000000    0.040130    0.025290    0.000000
H    -0.284677    1.132379    0.000000   -0.466122    1.940212    0.000000
3
* Frequency(6) -1069.7500
O    -0.006911    0.031888    0.000000    0.026840   -0.123834   -0.000000
H     0.958666   -0.006512    0.000000    0.040130    0.025290    0.000000
H    -0.242296    0.955972    0.000000   -0.466122    1.940212    0.000000
3
* Frequency(6) -1069.7500
O    -0.008603    0.039691    0.000000    0.026840   -0.123834   -0.000000
H     0.956138   -0.008106    0.000000    0.040130    0.025290    0.000000
H    -0.212922    0.833705    0.000000   -0.466122    1.940212    0.000000
3
* Frequency(6) -1069.7500
O    -0.009362    0.043194    0.000000    0.026840   -0.123834   -0.000000
H     0.955002   -0.008821    0.000000    0.040130    0.025290    0.000000
H    -0.199739    0.778828    0.000000   -0.466122    1.940212    0.000000
3
* Frequency(6) -1069.7500
O    -0.009107    0.042016    0.000000    0.026840   -0.123834   -0.000000
H     0.955384   -0.008581    0.000000    0.040130    0.025290    0.000000
H    -0.204173    0.797288    0.000000   -0.466122    1.940212    0.000000
3
* Frequency(6) -1069.7500
O    -0.007864    0.036284    0.000000    0.026840   -0.123834   -0.000000
H     0.957242   -0.007410    0.000000    0.040130    0.025290    0.000000
H    -0.225746    0.887085    0.000000   -0.466122    1.940212    0.000000
3
* Frequency(6) -1069.7500
O    -0.005770    0.026621    0.000000    0.026840   -0.123834   -0.000000
H     0.960373   -0.005437    0.000000    0.040130    0.025290    0.000000
H    -0.262120    1.038487    0.000000   -0.466122    1.940212    0.000000
3
* Frequency(6) -1069.7500
O    -0.003050    0.014073    0.000000    0.026840   -0.123834   -0.000000
H     0.964439   -0.002874    0.000000    0.040130    0.025290    0.000000
H    -0.309352    1.235088    0.000000   -0.466122    1.940212    0.000000
3
* Frequency(6) -1069.7500
O    -0.000000    0.000000    0.000000    0.026840   -0.123834   -0.000000
H     0.969000   -0.000000    0.000000    0.040130    0.025290    0.000000
H    -0.362324    1.455583    0.000000   -0.466122    1.940212    0.000000
